*SPEF "ieee 1481-1999"
*DESIGN "vahid6i"
*DATE "11:11:11 Fri 11 11, 1111"
*VENDOR "OpenRCX"
*PROGRAM "Parallel Extraction"
*VERSION "1.0"
*DESIGN_FLOW "NAME_SCOPE LOCAL" "PIN_CAP NONE"
*DIVIDER /
*DELIMITER :
*BUS_DELIMITER []
*T_UNIT 1 NS
*C_UNIT 1 PF
*R_UNIT 1 OHM
*L_UNIT 1 HENRY

*NAME_MAP
*1 D_R_data[0]
*2 D_R_data[10]
*3 D_R_data[11]
*4 D_R_data[12]
*5 D_R_data[13]
*6 D_R_data[14]
*7 D_R_data[15]
*8 D_R_data[1]
*9 D_R_data[2]
*10 D_R_data[3]
*11 D_R_data[4]
*12 D_R_data[5]
*13 D_R_data[6]
*14 D_R_data[7]
*15 D_R_data[8]
*16 D_R_data[9]
*17 D_W_data[0]
*18 D_W_data[10]
*19 D_W_data[11]
*20 D_W_data[12]
*21 D_W_data[13]
*22 D_W_data[14]
*23 D_W_data[15]
*24 D_W_data[1]
*25 D_W_data[2]
*26 D_W_data[3]
*27 D_W_data[4]
*28 D_W_data[5]
*29 D_W_data[6]
*30 D_W_data[7]
*31 D_W_data[8]
*32 D_W_data[9]
*33 D_addr[0]
*34 D_addr[1]
*35 D_addr[2]
*36 D_addr[3]
*37 D_addr[4]
*38 D_addr[5]
*39 D_addr[6]
*40 D_addr[7]
*41 D_rd
*42 D_wr
*43 I_addr[0]
*44 I_addr[10]
*45 I_addr[11]
*46 I_addr[12]
*47 I_addr[13]
*48 I_addr[14]
*49 I_addr[15]
*50 I_addr[1]
*51 I_addr[2]
*52 I_addr[3]
*53 I_addr[4]
*54 I_addr[5]
*55 I_addr[6]
*56 I_addr[7]
*57 I_addr[8]
*58 I_addr[9]
*59 I_data[0]
*60 I_data[10]
*61 I_data[11]
*62 I_data[12]
*63 I_data[13]
*64 I_data[14]
*65 I_data[15]
*66 I_data[1]
*67 I_data[2]
*68 I_data[3]
*69 I_data[4]
*70 I_data[5]
*71 I_data[6]
*72 I_data[7]
*73 I_data[8]
*74 I_data[9]
*75 I_rd
*78 clock
*79 led_clock
*80 leds[0]
*81 leds[1]
*82 leds[2]
*83 leds[3]
*84 reset
*85 _0000_
*86 _0001_
*87 _0002_
*88 _0003_
*89 _0004_
*90 _0005_
*91 _0006_
*92 _0007_
*93 _0008_
*94 _0009_
*95 _0010_
*96 _0011_
*97 _0012_
*98 _0013_
*99 _0014_
*100 _0015_
*101 _0016_
*102 _0017_
*103 _0018_
*104 _0019_
*105 _0020_
*106 _0021_
*107 _0022_
*108 _0023_
*109 _0024_
*110 _0025_
*111 _0026_
*112 _0027_
*113 _0028_
*114 _0029_
*115 _0030_
*116 _0031_
*117 _0032_
*118 _0033_
*119 _0034_
*120 _0035_
*121 _0036_
*122 _0037_
*123 _0038_
*124 _0039_
*125 _0040_
*126 _0041_
*127 _0042_
*128 _0043_
*129 _0044_
*130 _0045_
*131 _0046_
*132 _0047_
*133 _0048_
*134 _0049_
*135 _0050_
*136 _0051_
*137 _0052_
*138 _0053_
*139 _0054_
*140 _0055_
*141 _0056_
*142 _0057_
*143 _0058_
*144 _0059_
*145 _0060_
*146 _0061_
*147 _0062_
*148 _0063_
*149 _0064_
*150 _0065_
*151 _0066_
*152 _0067_
*153 _0068_
*154 _0069_
*155 _0070_
*156 _0071_
*157 _0072_
*158 _0073_
*159 _0074_
*160 _0075_
*161 _0076_
*162 _0077_
*163 _0078_
*164 _0079_
*165 _0080_
*166 _0081_
*167 _0082_
*168 _0083_
*169 _0084_
*170 _0085_
*171 _0086_
*172 _0087_
*173 _0088_
*174 _0089_
*175 _0090_
*176 _0091_
*177 _0092_
*178 _0093_
*179 _0094_
*180 _0095_
*181 _0096_
*182 _0097_
*183 _0098_
*184 _0099_
*185 _0100_
*186 _0101_
*187 _0102_
*188 _0103_
*189 _0104_
*190 _0105_
*191 _0106_
*192 _0107_
*193 _0108_
*194 _0109_
*195 _0110_
*196 _0111_
*197 _0112_
*198 _0113_
*199 _0114_
*200 _0115_
*201 _0116_
*202 _0117_
*203 _0118_
*204 _0119_
*205 _0120_
*206 _0121_
*207 _0122_
*208 _0123_
*209 _0124_
*210 _0125_
*211 _0126_
*212 _0127_
*213 _0128_
*214 _0129_
*215 _0130_
*216 _0131_
*217 _0132_
*218 _0133_
*219 _0134_
*220 _0135_
*221 _0136_
*222 _0137_
*223 _0138_
*224 _0139_
*225 _0140_
*226 _0141_
*227 _0142_
*228 _0143_
*229 _0144_
*230 _0145_
*231 _0146_
*232 _0147_
*233 _0148_
*234 _0149_
*235 _0150_
*236 _0151_
*237 _0152_
*238 _0153_
*239 _0154_
*240 _0155_
*241 _0156_
*242 _0157_
*243 _0158_
*244 _0159_
*245 _0160_
*246 _0161_
*247 _0162_
*248 _0163_
*249 _0164_
*250 _0165_
*251 _0166_
*252 _0167_
*253 _0168_
*254 _0169_
*255 _0170_
*256 _0171_
*257 _0172_
*258 _0173_
*259 _0174_
*260 _0175_
*261 _0176_
*262 _0177_
*263 _0178_
*264 _0179_
*265 _0180_
*266 _0181_
*267 _0182_
*268 _0183_
*269 _0184_
*270 _0185_
*271 _0186_
*272 _0187_
*273 _0188_
*274 _0189_
*275 _0190_
*276 _0191_
*277 _0192_
*278 _0193_
*279 _0194_
*280 _0195_
*281 _0196_
*282 _0197_
*283 _0198_
*284 _0199_
*285 _0200_
*286 _0201_
*287 _0202_
*288 _0203_
*289 _0204_
*290 _0205_
*291 _0206_
*292 _0207_
*293 _0208_
*294 _0209_
*295 _0210_
*296 _0211_
*297 _0212_
*298 _0213_
*299 _0214_
*300 _0215_
*301 _0216_
*302 _0217_
*303 _0218_
*304 _0219_
*305 _0220_
*306 _0221_
*307 _0222_
*308 _0223_
*309 _0224_
*310 _0225_
*311 _0226_
*312 _0227_
*313 _0228_
*314 _0229_
*315 _0230_
*316 _0231_
*317 _0232_
*318 _0233_
*319 _0234_
*320 _0235_
*321 _0236_
*322 _0237_
*323 _0238_
*324 _0239_
*325 _0240_
*326 _0241_
*327 _0242_
*328 _0243_
*329 _0244_
*330 _0245_
*331 _0246_
*332 _0247_
*333 _0248_
*334 _0256_
*335 _0257_
*336 _0258_
*337 _0259_
*338 _0260_
*339 _0261_
*340 _0262_
*341 _0263_
*342 _0264_
*343 _0265_
*344 _0266_
*345 _0267_
*346 _0268_
*347 _0269_
*348 _0270_
*349 _0271_
*350 _0272_
*351 _0273_
*352 _0274_
*353 _0275_
*354 _0276_
*355 _0277_
*356 _0278_
*357 _0279_
*358 _0280_
*359 _0281_
*360 _0282_
*361 _0283_
*362 _0284_
*363 _0285_
*364 _0286_
*365 _0287_
*366 _0288_
*367 _0289_
*368 _0290_
*369 _0291_
*370 _0292_
*371 _0293_
*372 _0294_
*373 _0295_
*374 _0296_
*375 _0297_
*376 _0298_
*377 _0299_
*378 _0300_
*379 _0301_
*380 _0302_
*381 _0303_
*382 _0304_
*383 _0305_
*384 _0306_
*385 _0307_
*386 _0308_
*387 _0309_
*388 _0310_
*389 _0311_
*390 _0312_
*391 _0313_
*392 _0314_
*393 _0315_
*394 _0316_
*395 _0317_
*396 _0318_
*397 _0319_
*398 _0320_
*399 _0321_
*400 _0322_
*401 _0323_
*402 _0324_
*403 _0325_
*404 _0326_
*405 _0327_
*406 _0328_
*407 _0329_
*408 _0330_
*409 _0331_
*410 _0332_
*411 _0333_
*412 _0334_
*413 _0335_
*414 _0336_
*415 _0337_
*416 _0338_
*417 _0339_
*418 _0340_
*419 _0341_
*420 _0342_
*421 _0343_
*422 _0344_
*423 _0345_
*424 _0346_
*425 _0347_
*426 _0348_
*427 _0349_
*428 _0350_
*429 _0351_
*430 _0352_
*431 _0353_
*432 _0354_
*433 _0355_
*434 _0356_
*435 _0357_
*436 _0358_
*437 _0359_
*438 _0360_
*439 _0361_
*440 _0362_
*441 _0363_
*442 _0364_
*443 _0365_
*444 _0366_
*445 _0367_
*446 _0368_
*447 _0369_
*448 _0370_
*449 _0371_
*450 _0372_
*451 _0373_
*452 _0374_
*453 _0375_
*454 _0376_
*455 _0377_
*456 _0378_
*457 _0379_
*458 _0380_
*459 _0381_
*460 _0382_
*461 _0383_
*462 _0384_
*463 _0385_
*464 _0386_
*465 _0387_
*466 _0388_
*467 _0389_
*468 _0390_
*469 _0391_
*470 _0392_
*471 _0393_
*472 _0394_
*473 _0395_
*474 _0396_
*475 _0397_
*476 _0398_
*477 _0399_
*478 _0400_
*479 _0401_
*480 _0402_
*481 _0403_
*482 _0404_
*483 _0405_
*484 _0406_
*485 _0407_
*486 _0408_
*487 _0409_
*488 _0410_
*489 _0411_
*490 _0412_
*491 _0413_
*492 _0414_
*493 _0415_
*494 _0416_
*495 _0417_
*496 _0418_
*497 _0419_
*498 _0420_
*499 _0421_
*500 _0422_
*501 _0423_
*502 _0424_
*503 _0425_
*504 _0426_
*505 _0427_
*506 _0428_
*507 _0429_
*508 _0430_
*509 _0431_
*510 _0432_
*511 _0433_
*512 _0434_
*513 _0435_
*514 _0436_
*515 _0437_
*516 _0438_
*517 _0439_
*518 _0440_
*519 _0441_
*520 _0442_
*521 _0443_
*522 _0444_
*523 _0445_
*524 _0446_
*525 _0447_
*526 _0448_
*527 _0449_
*528 _0450_
*529 _0451_
*530 _0452_
*531 _0453_
*532 _0454_
*533 _0455_
*534 _0456_
*535 _0457_
*536 _0458_
*537 _0459_
*538 _0460_
*539 _0461_
*540 _0462_
*541 _0463_
*542 _0464_
*543 _0465_
*544 _0466_
*545 _0467_
*546 _0468_
*547 _0469_
*548 _0470_
*549 _0471_
*550 _0472_
*551 _0473_
*552 _0474_
*553 _0475_
*554 _0476_
*555 _0477_
*556 _0478_
*557 _0479_
*558 _0480_
*559 _0481_
*560 _0482_
*561 _0483_
*562 _0484_
*563 _0485_
*564 _0486_
*565 _0487_
*566 _0488_
*567 _0489_
*568 _0490_
*569 _0491_
*570 _0492_
*571 _0493_
*572 _0494_
*573 _0495_
*574 _0496_
*575 _0497_
*576 _0498_
*577 _0499_
*578 _0500_
*579 _0501_
*580 _0502_
*581 _0503_
*582 _0504_
*583 _0505_
*584 _0506_
*585 _0507_
*586 _0508_
*587 _0509_
*588 _0510_
*589 _0511_
*590 _0512_
*591 _0513_
*592 _0514_
*593 _0515_
*594 _0516_
*595 _0517_
*596 _0518_
*597 _0519_
*598 _0520_
*599 _0521_
*600 _0522_
*601 _0523_
*602 _0524_
*603 _0525_
*604 _0526_
*605 _0527_
*606 _0528_
*607 _0529_
*608 _0530_
*609 _0531_
*610 _0532_
*611 _0533_
*612 _0534_
*613 _0535_
*614 _0536_
*615 _0537_
*616 _0538_
*617 _0539_
*618 _0540_
*619 _0541_
*620 _0542_
*621 _0543_
*622 _0544_
*623 _0545_
*624 _0546_
*625 _0547_
*626 _0548_
*627 _0549_
*628 _0550_
*629 _0551_
*630 _0552_
*631 _0553_
*632 _0554_
*633 _0555_
*634 _0556_
*635 _0557_
*636 _0558_
*637 _0559_
*638 _0560_
*639 _0561_
*640 _0562_
*641 _0563_
*642 _0564_
*643 _0565_
*644 _0566_
*645 _0567_
*646 _0568_
*647 _0569_
*648 _0570_
*649 _0571_
*650 _0572_
*651 _0573_
*652 _0574_
*653 _0575_
*654 _0576_
*655 _0577_
*656 _0578_
*657 _0579_
*658 _0580_
*659 _0581_
*660 _0582_
*661 _0583_
*662 _0584_
*663 _0585_
*664 _0586_
*665 _0587_
*666 _0588_
*667 _0589_
*668 _0590_
*669 _0591_
*670 _0592_
*671 _0593_
*672 _0594_
*673 _0595_
*674 _0596_
*675 _0597_
*676 _0598_
*677 _0599_
*678 _0600_
*679 _0601_
*680 _0602_
*681 _0603_
*682 _0604_
*683 _0605_
*684 _0606_
*685 _0607_
*686 _0608_
*687 _0609_
*688 _0610_
*689 _0611_
*690 _0612_
*691 _0613_
*692 _0614_
*693 _0615_
*694 _0616_
*695 _0617_
*696 _0618_
*697 _0619_
*698 _0620_
*699 _0621_
*700 _0622_
*701 _0623_
*702 _0624_
*703 _0625_
*704 _0626_
*705 _0627_
*706 _0628_
*707 _0629_
*708 _0630_
*709 _0631_
*710 _0632_
*711 _0633_
*712 _0634_
*713 _0635_
*714 _0636_
*715 _0637_
*716 _0638_
*717 _0639_
*718 _0640_
*719 _0641_
*720 _0642_
*721 _0643_
*722 _0644_
*723 _0645_
*724 _0646_
*725 _0647_
*726 _0648_
*727 _0649_
*728 _0650_
*729 _0651_
*730 _0652_
*731 _0653_
*732 _0654_
*733 _0655_
*734 _0656_
*735 _0657_
*736 _0658_
*737 _0659_
*738 _0660_
*739 _0661_
*740 _0662_
*741 _0663_
*742 _0664_
*743 _0665_
*744 _0666_
*745 _0667_
*746 _0668_
*747 _0669_
*748 _0670_
*749 _0671_
*750 _0672_
*751 _0673_
*752 _0674_
*753 _0675_
*754 _0676_
*755 _0677_
*756 _0678_
*757 _0679_
*758 _0680_
*759 _0681_
*760 _0682_
*761 _0683_
*762 _0684_
*763 _0685_
*764 _0686_
*765 _0687_
*766 _0688_
*767 _0689_
*768 _0690_
*769 _0691_
*770 _0692_
*771 _0693_
*772 _0694_
*773 _0695_
*774 _0696_
*775 _0697_
*776 _0698_
*777 _0699_
*778 _0700_
*779 _0701_
*780 _0702_
*781 _0703_
*782 _0704_
*783 _0705_
*784 _0706_
*785 _0707_
*786 _0708_
*787 _0709_
*788 _0710_
*789 _0711_
*790 _0712_
*791 _0713_
*792 _0714_
*793 _0715_
*794 _0716_
*795 _0717_
*796 _0718_
*797 _0719_
*798 _0720_
*799 _0721_
*800 _0722_
*801 _0723_
*802 _0724_
*803 _0725_
*804 _0726_
*805 _0727_
*806 _0728_
*807 _0729_
*808 _0730_
*809 _0731_
*810 _0732_
*811 _0733_
*812 _0734_
*813 _0735_
*814 _0736_
*815 _0737_
*816 _0738_
*817 _0739_
*818 _0740_
*819 _0741_
*820 _0742_
*821 _0743_
*822 _0744_
*823 _0745_
*824 _0746_
*825 _0747_
*826 _0748_
*827 _0749_
*828 _0750_
*829 _0751_
*830 _0752_
*831 _0753_
*832 _0754_
*833 _0755_
*834 _0756_
*835 _0757_
*836 _0758_
*837 _0759_
*838 _0760_
*839 _0761_
*840 _0762_
*841 _0763_
*842 _0764_
*843 _0765_
*844 _0766_
*845 _0767_
*846 _0768_
*847 _0769_
*848 _0770_
*849 _0771_
*850 _0772_
*851 _0773_
*852 _0774_
*853 _0775_
*854 _0776_
*855 _0777_
*856 _0778_
*857 _0779_
*858 _0780_
*859 _0781_
*860 _0782_
*861 _0783_
*862 _0784_
*863 _0785_
*864 _0786_
*865 _0787_
*866 _0788_
*867 _0789_
*868 _0790_
*869 _0791_
*870 _0792_
*871 _0793_
*872 _0794_
*873 _0795_
*874 _0796_
*875 _0797_
*876 _0798_
*877 _0799_
*878 _0800_
*879 _0801_
*880 _0802_
*881 _0803_
*882 _0804_
*883 _0805_
*884 _0806_
*885 _0807_
*886 _0808_
*887 _0809_
*888 _0810_
*889 _0811_
*890 _0812_
*891 _0813_
*892 _0814_
*893 _0815_
*894 _0816_
*895 _0817_
*896 _0818_
*897 _0819_
*898 _0820_
*899 _0821_
*900 _0822_
*901 _0823_
*902 _0824_
*903 _0825_
*904 _0826_
*905 _0827_
*906 _0828_
*907 _0829_
*908 _0830_
*909 _0831_
*910 _0832_
*911 _0833_
*912 _0834_
*913 _0835_
*914 _0836_
*915 _0837_
*916 _0838_
*917 _0839_
*918 _0840_
*919 _0841_
*920 _0842_
*921 _0843_
*922 _0844_
*923 _0845_
*924 _0846_
*925 _0847_
*926 _0848_
*927 _0849_
*928 _0850_
*929 _0851_
*930 _0852_
*931 _0853_
*932 _0854_
*933 _0855_
*934 _0856_
*935 _0857_
*936 _0858_
*937 _0859_
*938 _0860_
*939 _0861_
*940 _0862_
*941 _0863_
*942 _0864_
*943 _0865_
*944 _0866_
*945 _0867_
*946 _0868_
*947 _0869_
*948 _0870_
*949 _0871_
*950 _0872_
*951 _0873_
*952 _0874_
*953 _0875_
*954 _0876_
*955 _0877_
*956 _0878_
*957 _0879_
*958 _0880_
*959 _0881_
*960 _0882_
*961 _0883_
*962 _0884_
*963 _0885_
*964 _0886_
*965 _0887_
*966 _0888_
*967 _0889_
*968 _0890_
*969 _0891_
*970 _0892_
*971 _0893_
*972 _0894_
*973 _0895_
*974 _0896_
*975 _0897_
*976 _0898_
*977 _0899_
*978 _0900_
*979 _0901_
*980 _0902_
*981 _0903_
*982 _0904_
*983 _0905_
*984 _0906_
*985 _0907_
*986 _0908_
*987 _0909_
*988 _0910_
*989 _0911_
*990 _0912_
*991 _0913_
*992 _0914_
*993 _0915_
*994 _0916_
*995 _0917_
*996 _0918_
*997 _0919_
*998 _0920_
*999 _0921_
*1000 _0922_
*1001 _0923_
*1002 _0924_
*1003 _0925_
*1004 _0926_
*1005 _0927_
*1006 _0928_
*1007 _0929_
*1008 _0930_
*1009 _0931_
*1010 _0932_
*1011 _0933_
*1012 _0934_
*1013 _0935_
*1014 _0936_
*1015 _0937_
*1016 _0938_
*1017 _0939_
*1018 _0940_
*1019 _0941_
*1020 _0942_
*1021 _0943_
*1022 _0944_
*1023 _0945_
*1024 _0946_
*1025 _0947_
*1026 _0948_
*1027 _0949_
*1028 _0950_
*1029 _0951_
*1030 _0952_
*1031 _0953_
*1032 _0954_
*1033 _0955_
*1034 _0956_
*1035 _0957_
*1036 _0958_
*1037 _0959_
*1038 _0960_
*1039 _0961_
*1040 _0962_
*1041 _0963_
*1042 _0964_
*1043 _0965_
*1044 _0966_
*1045 _0967_
*1046 _0968_
*1047 _0969_
*1048 _0970_
*1049 _0971_
*1050 _0972_
*1051 _0973_
*1052 _0974_
*1053 _0975_
*1054 _0976_
*1055 _0977_
*1056 _0978_
*1057 _0979_
*1058 _0980_
*1059 _0981_
*1060 _0982_
*1061 _0983_
*1062 _0984_
*1063 _0985_
*1064 _0986_
*1065 _0987_
*1066 _0988_
*1067 _0989_
*1068 _0990_
*1069 _0991_
*1070 _0992_
*1071 _0993_
*1072 _0994_
*1073 _0995_
*1074 _0996_
*1075 _0997_
*1076 _0998_
*1077 _0999_
*1078 _1000_
*1079 _1001_
*1080 _1002_
*1081 _1003_
*1082 _1004_
*1083 _1005_
*1084 _1006_
*1085 _1007_
*1086 _1008_
*1087 _1009_
*1088 _1010_
*1089 _1011_
*1090 _1012_
*1091 _1013_
*1092 _1014_
*1093 _1015_
*1094 _1016_
*1095 _1017_
*1096 _1018_
*1097 _1019_
*1098 _1020_
*1099 _1021_
*1100 _1022_
*1101 _1023_
*1102 _1024_
*1103 _1025_
*1104 _1026_
*1105 _1027_
*1106 _1028_
*1107 _1029_
*1108 _1030_
*1109 _1031_
*1110 _1032_
*1111 _1033_
*1112 _1034_
*1113 _1035_
*1114 _1036_
*1115 _1037_
*1116 _1038_
*1117 _1039_
*1118 _1040_
*1119 _1041_
*1120 _1042_
*1121 _1043_
*1122 _1044_
*1123 _1045_
*1124 _1046_
*1125 _1047_
*1126 _1048_
*1127 _1049_
*1128 _1050_
*1129 _1051_
*1130 _1052_
*1131 _1053_
*1132 _1054_
*1133 _1055_
*1134 _1056_
*1135 _1057_
*1136 _1058_
*1137 _1059_
*1138 _1060_
*1139 _1061_
*1140 _1062_
*1141 _1063_
*1142 _1064_
*1143 _1065_
*1144 _1066_
*1145 _1067_
*1146 _1068_
*1147 _1069_
*1148 _1070_
*1149 _1071_
*1150 _1072_
*1151 _1073_
*1152 _1074_
*1153 _1075_
*1154 _1076_
*1155 _1077_
*1156 _1078_
*1157 _1079_
*1158 _1080_
*1159 _1081_
*1160 _1082_
*1161 _1083_
*1162 _1084_
*1163 _1085_
*1164 _1086_
*1165 _1087_
*1166 _1088_
*1167 _1089_
*1168 _1090_
*1169 _1091_
*1170 _1092_
*1171 _1093_
*1172 _1094_
*1173 _1095_
*1174 _1096_
*1175 _1097_
*1176 _1098_
*1177 _1099_
*1178 _1100_
*1179 _1101_
*1180 _1102_
*1181 _1103_
*1182 _1104_
*1183 _1105_
*1184 _1106_
*1185 _1107_
*1186 _1108_
*1187 _1109_
*1188 _1110_
*1189 _1111_
*1190 _1112_
*1191 _1113_
*1192 _1114_
*1193 _1115_
*1194 _1116_
*1195 _1117_
*1196 _1118_
*1197 _1119_
*1198 _1120_
*1199 _1121_
*1200 _1122_
*1201 _1123_
*1202 _1124_
*1203 _1125_
*1204 _1126_
*1205 _1127_
*1206 _1128_
*1207 _1129_
*1208 _1130_
*1209 _1131_
*1210 _1132_
*1211 _1133_
*1212 _1134_
*1213 _1135_
*1214 _1136_
*1215 _1137_
*1216 _1138_
*1217 _1139_
*1218 _1140_
*1219 _1141_
*1220 _1142_
*1221 _1143_
*1222 _1144_
*1223 _1145_
*1224 _1146_
*1225 _1147_
*1226 _1148_
*1227 _1149_
*1228 _1150_
*1229 _1151_
*1230 _1152_
*1231 _1153_
*1232 _1154_
*1233 _1155_
*1234 _1156_
*1235 _1157_
*1236 _1158_
*1237 _1159_
*1238 _1160_
*1239 _1161_
*1240 _1162_
*1241 _1163_
*1242 _1164_
*1243 _1165_
*1244 _1166_
*1245 _1167_
*1246 _1168_
*1247 _1169_
*1248 _1170_
*1249 _1171_
*1250 _1172_
*1251 _1173_
*1252 _1174_
*1253 _1175_
*1254 _1176_
*1255 _1177_
*1256 _1178_
*1257 _1179_
*1258 _1180_
*1259 _1181_
*1260 _1182_
*1261 _1183_
*1262 _1184_
*1263 _1185_
*1264 _1186_
*1265 _1187_
*1266 _1188_
*1267 _1189_
*1268 _1190_
*1269 _1191_
*1270 _1192_
*1271 _1193_
*1272 _1194_
*1273 _1195_
*1274 _1196_
*1275 _1197_
*1276 _1198_
*1277 _1199_
*1278 _1200_
*1279 _1201_
*1280 _1202_
*1281 _1203_
*1282 _1204_
*1283 _1205_
*1284 _1206_
*1285 _1207_
*1286 _1208_
*1287 _1209_
*1288 _1210_
*1289 _1211_
*1290 _1212_
*1291 _1213_
*1292 _1214_
*1293 _1215_
*1294 _1216_
*1295 _1217_
*1296 _1218_
*1297 _1219_
*1298 _1220_
*1299 _1221_
*1300 _1222_
*1301 _1223_
*1302 _1224_
*1303 _1225_
*1304 _1226_
*1305 _1227_
*1306 _1228_
*1307 _1229_
*1308 _1230_
*1309 _1231_
*1310 _1232_
*1311 _1233_
*1312 _1234_
*1313 _1235_
*1314 _1236_
*1315 _1237_
*1316 _1238_
*1317 _1239_
*1318 _1240_
*1319 _1241_
*1320 _1242_
*1321 _1243_
*1322 _1244_
*1323 _1245_
*1324 _1246_
*1325 _1247_
*1326 _1248_
*1327 _1249_
*1328 _1250_
*1329 _1251_
*1330 _1252_
*1331 _1253_
*1332 _1254_
*1333 _1255_
*1334 _1256_
*1335 _1257_
*1336 _1258_
*1337 _1259_
*1338 _1260_
*1339 _1261_
*1340 _1262_
*1341 _1263_
*1342 _1264_
*1343 _1265_
*1344 _1266_
*1345 _1267_
*1346 _1268_
*1347 _1269_
*1348 _1270_
*1349 _1271_
*1350 _1272_
*1351 _1273_
*1352 _1274_
*1353 _1275_
*1354 _1276_
*1355 _1277_
*1356 _1278_
*1357 _1279_
*1358 _1280_
*1359 _1281_
*1360 _1282_
*1361 _1283_
*1362 _1284_
*1363 _1285_
*1364 _1286_
*1365 _1287_
*1366 _1288_
*1367 _1289_
*1368 _1290_
*1369 _1291_
*1370 _1292_
*1371 _1293_
*1372 _1294_
*1373 _1295_
*1374 _1296_
*1375 _1297_
*1376 _1298_
*1377 _1299_
*1378 _1300_
*1379 _1301_
*1380 _1302_
*1381 _1303_
*1382 _1304_
*1383 _1305_
*1384 _1306_
*1385 _1307_
*1386 _1308_
*1387 _1309_
*1388 _1310_
*1389 _1311_
*1390 _1312_
*1391 _1313_
*1392 _1314_
*1393 _1315_
*1394 _1316_
*1395 _1317_
*1396 _1318_
*1397 _1319_
*1398 _1320_
*1399 _1321_
*1400 _1322_
*1401 _1323_
*1402 _1324_
*1403 _1325_
*1404 _1326_
*1405 _1327_
*1406 _1328_
*1407 _1329_
*1408 _1330_
*1409 _1331_
*1410 _1332_
*1411 _1333_
*1412 _1334_
*1413 _1335_
*1414 _1336_
*1415 _1337_
*1416 _1338_
*1417 _1339_
*1418 _1340_
*1419 _1341_
*1420 _1342_
*1421 _1343_
*1422 _1344_
*1423 _1345_
*1424 _1346_
*1425 _1347_
*1426 _1348_
*1427 _1349_
*1428 _1350_
*1429 _1351_
*1430 _1352_
*1431 _1353_
*1432 _1354_
*1433 _1355_
*1434 _1356_
*1435 _1357_
*1436 _1358_
*1437 _1359_
*1438 _1360_
*1439 _1361_
*1440 _1362_
*1441 _1363_
*1442 _1364_
*1443 _1365_
*1444 _1366_
*1445 _1367_
*1446 _1368_
*1447 _1369_
*1448 _1370_
*1449 _1371_
*1450 _1372_
*1451 _1373_
*1452 _1374_
*1453 _1375_
*1454 _1376_
*1455 _1377_
*1456 _1378_
*1457 _1379_
*1458 _1380_
*1459 _1381_
*1460 _1382_
*1461 _1383_
*1462 _1384_
*1463 _1385_
*1464 _1386_
*1465 _1387_
*1466 _1388_
*1467 _1389_
*1468 _1390_
*1469 _1391_
*1470 _1392_
*1471 _1393_
*1472 _1394_
*1473 _1395_
*1474 _1396_
*1475 _1397_
*1476 _1398_
*1477 _1399_
*1478 _1400_
*1479 _1401_
*1480 _1402_
*1481 _1403_
*1482 _1404_
*1483 _1405_
*1484 _1406_
*1485 _1407_
*1486 _1408_
*1487 _1409_
*1488 _1410_
*1489 _1411_
*1490 _1412_
*1491 _1413_
*1492 _1414_
*1493 _1415_
*1494 _1416_
*1495 _1417_
*1496 _1418_
*1497 _1419_
*1498 _1420_
*1499 _1421_
*1500 _1422_
*1501 _1423_
*1502 _1424_
*1503 _1425_
*1504 _1426_
*1505 _1427_
*1506 _1428_
*1507 _1429_
*1508 _1430_
*1509 _1431_
*1510 _1432_
*1511 _1433_
*1512 _1434_
*1513 _1435_
*1514 _1436_
*1515 _1437_
*1516 _1438_
*1517 _1439_
*1518 _1440_
*1519 _1441_
*1520 _1442_
*1521 _1443_
*1522 _1444_
*1523 _1445_
*1524 _1446_
*1525 _1447_
*1526 _1448_
*1527 _1449_
*1528 _1450_
*1529 _1451_
*1530 _1452_
*1531 _1453_
*1532 _1454_
*1533 _1455_
*1534 _1456_
*1535 _1457_
*1536 _1458_
*1537 _1459_
*1538 _1460_
*1539 _1461_
*1540 _1462_
*1541 _1463_
*1542 _1464_
*1543 _1465_
*1544 _1466_
*1545 _1467_
*1546 _1468_
*1547 _1469_
*1548 _1470_
*1549 _1471_
*1550 _1472_
*1551 _1473_
*1552 _1474_
*1553 _1475_
*1554 _1476_
*1555 _1477_
*1556 _1478_
*1557 _1479_
*1558 _1480_
*1559 _1481_
*1560 _1482_
*1561 _1483_
*1562 net1
*1563 net10
*1564 net100
*1565 net101
*1566 net102
*1567 net103
*1568 net104
*1569 net105
*1570 net106
*1571 net107
*1572 net108
*1573 net109
*1574 net11
*1575 net110
*1576 net111
*1577 net112
*1578 net113
*1579 net114
*1580 net115
*1581 net116
*1582 net117
*1583 net118
*1584 net119
*1585 net12
*1586 net120
*1587 net121
*1588 net122
*1589 net123
*1590 net124
*1591 net125
*1592 net126
*1593 net127
*1594 net128
*1595 net129
*1596 net13
*1597 net130
*1598 net131
*1599 net132
*1600 net133
*1601 net134
*1602 net135
*1603 net136
*1604 net137
*1605 net138
*1606 net139
*1607 net14
*1608 net140
*1609 net141
*1610 net142
*1611 net143
*1612 net144
*1613 net145
*1614 net146
*1615 net147
*1616 net148
*1617 net149
*1618 net15
*1619 net150
*1620 net151
*1621 net152
*1622 net153
*1623 net154
*1624 net155
*1625 net156
*1626 net157
*1627 net158
*1628 net159
*1629 net16
*1630 net160
*1631 net161
*1632 net162
*1633 net163
*1634 net164
*1635 net165
*1636 net166
*1637 net167
*1638 net168
*1639 net169
*1640 net17
*1641 net170
*1642 net171
*1643 net172
*1644 net173
*1645 net174
*1646 net175
*1647 net176
*1648 net177
*1649 net178
*1650 net179
*1651 net18
*1652 net180
*1653 net181
*1654 net182
*1655 net19
*1656 net2
*1657 net20
*1658 net21
*1659 net22
*1660 net23
*1661 net24
*1662 net25
*1663 net26
*1664 net27
*1665 net28
*1666 net29
*1667 net3
*1668 net30
*1669 net31
*1670 net32
*1671 net33
*1672 net34
*1673 net35
*1674 net36
*1675 net37
*1676 net38
*1677 net39
*1678 net4
*1679 net40
*1680 net41
*1681 net42
*1682 net43
*1683 net44
*1684 net45
*1685 net46
*1686 net47
*1687 net48
*1688 net49
*1689 net5
*1690 net50
*1691 net51
*1692 net52
*1693 net53
*1694 net54
*1695 net55
*1696 net56
*1697 net57
*1698 net58
*1699 net59
*1700 net6
*1701 net60
*1702 net61
*1703 net62
*1704 net63
*1705 net64
*1706 net65
*1707 net66
*1708 net67
*1709 net68
*1710 net69
*1711 net7
*1712 net70
*1713 net71
*1714 net72
*1715 net73
*1716 net74
*1717 net75
*1718 net76
*1719 net77
*1720 net78
*1721 net79
*1722 net8
*1723 net80
*1724 net81
*1725 net82
*1726 net83
*1727 net84
*1728 net85
*1729 net86
*1730 net87
*1731 net88
*1732 net89
*1733 net9
*1734 net90
*1735 net91
*1736 net92
*1737 net93
*1738 net94
*1739 net95
*1740 net96
*1741 net97
*1742 net98
*1743 net99
*1744 po_0\._1_\[0\]
*1745 po_0\._1_\[10\]
*1746 po_0\._1_\[11\]
*1747 po_0\._1_\[12\]
*1748 po_0\._1_\[13\]
*1749 po_0\._1_\[14\]
*1750 po_0\._1_\[15\]
*1751 po_0\._1_\[1\]
*1752 po_0\._1_\[2\]
*1753 po_0\._1_\[3\]
*1754 po_0\._1_\[4\]
*1755 po_0\._1_\[5\]
*1756 po_0\._1_\[6\]
*1757 po_0\._1_\[7\]
*1758 po_0\._1_\[8\]
*1759 po_0\._1_\[9\]
*1760 po_0\.alu_0\._10_\[0\]
*1761 po_0\.alu_0\._10_\[10\]
*1762 po_0\.alu_0\._10_\[11\]
*1763 po_0\.alu_0\._10_\[12\]
*1764 po_0\.alu_0\._10_\[13\]
*1765 po_0\.alu_0\._10_\[14\]
*1766 po_0\.alu_0\._10_\[15\]
*1767 po_0\.alu_0\._10_\[1\]
*1768 po_0\.alu_0\._10_\[2\]
*1769 po_0\.alu_0\._10_\[3\]
*1770 po_0\.alu_0\._10_\[4\]
*1771 po_0\.alu_0\._10_\[5\]
*1772 po_0\.alu_0\._10_\[6\]
*1773 po_0\.alu_0\._10_\[7\]
*1774 po_0\.alu_0\._10_\[8\]
*1775 po_0\.alu_0\._10_\[9\]
*1776 po_0\.alu_0\._11_\[0\]
*1777 po_0\.alu_0\._11_\[10\]
*1778 po_0\.alu_0\._11_\[11\]
*1779 po_0\.alu_0\._11_\[12\]
*1780 po_0\.alu_0\._11_\[13\]
*1781 po_0\.alu_0\._11_\[14\]
*1782 po_0\.alu_0\._11_\[15\]
*1783 po_0\.alu_0\._11_\[1\]
*1784 po_0\.alu_0\._11_\[2\]
*1785 po_0\.alu_0\._11_\[3\]
*1786 po_0\.alu_0\._11_\[4\]
*1787 po_0\.alu_0\._11_\[5\]
*1788 po_0\.alu_0\._11_\[6\]
*1789 po_0\.alu_0\._11_\[7\]
*1790 po_0\.alu_0\._11_\[8\]
*1791 po_0\.alu_0\._11_\[9\]
*1792 po_0\.alu_0\.s0
*1793 po_0\.alu_0\.s1
*1794 po_0\.muxf_0\.rf_w_data\[0\]
*1795 po_0\.muxf_0\.rf_w_data\[1\]
*1796 po_0\.muxf_0\.rf_w_data\[2\]
*1797 po_0\.muxf_0\.rf_w_data\[3\]
*1798 po_0\.muxf_0\.rf_w_data\[4\]
*1799 po_0\.muxf_0\.rf_w_data\[5\]
*1800 po_0\.muxf_0\.rf_w_data\[6\]
*1801 po_0\.muxf_0\.rf_w_data\[7\]
*1802 po_0\.muxf_0\.s0
*1803 po_0\.muxf_0\.s1
*1804 po_0\.regf_0\._3_\[0\]
*1805 po_0\.regf_0\._3_\[10\]
*1806 po_0\.regf_0\._3_\[11\]
*1807 po_0\.regf_0\._3_\[12\]
*1808 po_0\.regf_0\._3_\[13\]
*1809 po_0\.regf_0\._3_\[14\]
*1810 po_0\.regf_0\._3_\[15\]
*1811 po_0\.regf_0\._3_\[1\]
*1812 po_0\.regf_0\._3_\[2\]
*1813 po_0\.regf_0\._3_\[3\]
*1814 po_0\.regf_0\._3_\[4\]
*1815 po_0\.regf_0\._3_\[5\]
*1816 po_0\.regf_0\._3_\[6\]
*1817 po_0\.regf_0\._3_\[7\]
*1818 po_0\.regf_0\._3_\[8\]
*1819 po_0\.regf_0\._3_\[9\]
*1820 po_0\.regf_0\._5_\[0\]
*1821 po_0\.regf_0\._5_\[10\]
*1822 po_0\.regf_0\._5_\[11\]
*1823 po_0\.regf_0\._5_\[12\]
*1824 po_0\.regf_0\._5_\[13\]
*1825 po_0\.regf_0\._5_\[14\]
*1826 po_0\.regf_0\._5_\[15\]
*1827 po_0\.regf_0\._5_\[1\]
*1828 po_0\.regf_0\._5_\[2\]
*1829 po_0\.regf_0\._5_\[3\]
*1830 po_0\.regf_0\._5_\[4\]
*1831 po_0\.regf_0\._5_\[5\]
*1832 po_0\.regf_0\._5_\[6\]
*1833 po_0\.regf_0\._5_\[7\]
*1834 po_0\.regf_0\._5_\[8\]
*1835 po_0\.regf_0\._5_\[9\]
*1836 po_0\.regf_0\.rf\[0\]\[0\]
*1837 po_0\.regf_0\.rf\[0\]\[10\]
*1838 po_0\.regf_0\.rf\[0\]\[11\]
*1839 po_0\.regf_0\.rf\[0\]\[12\]
*1840 po_0\.regf_0\.rf\[0\]\[13\]
*1841 po_0\.regf_0\.rf\[0\]\[14\]
*1842 po_0\.regf_0\.rf\[0\]\[15\]
*1843 po_0\.regf_0\.rf\[0\]\[1\]
*1844 po_0\.regf_0\.rf\[0\]\[2\]
*1845 po_0\.regf_0\.rf\[0\]\[3\]
*1846 po_0\.regf_0\.rf\[0\]\[4\]
*1847 po_0\.regf_0\.rf\[0\]\[5\]
*1848 po_0\.regf_0\.rf\[0\]\[6\]
*1849 po_0\.regf_0\.rf\[0\]\[7\]
*1850 po_0\.regf_0\.rf\[0\]\[8\]
*1851 po_0\.regf_0\.rf\[0\]\[9\]
*1852 po_0\.regf_0\.rf\[10\]\[0\]
*1853 po_0\.regf_0\.rf\[10\]\[10\]
*1854 po_0\.regf_0\.rf\[10\]\[11\]
*1855 po_0\.regf_0\.rf\[10\]\[12\]
*1856 po_0\.regf_0\.rf\[10\]\[13\]
*1857 po_0\.regf_0\.rf\[10\]\[14\]
*1858 po_0\.regf_0\.rf\[10\]\[15\]
*1859 po_0\.regf_0\.rf\[10\]\[1\]
*1860 po_0\.regf_0\.rf\[10\]\[2\]
*1861 po_0\.regf_0\.rf\[10\]\[3\]
*1862 po_0\.regf_0\.rf\[10\]\[4\]
*1863 po_0\.regf_0\.rf\[10\]\[5\]
*1864 po_0\.regf_0\.rf\[10\]\[6\]
*1865 po_0\.regf_0\.rf\[10\]\[7\]
*1866 po_0\.regf_0\.rf\[10\]\[8\]
*1867 po_0\.regf_0\.rf\[10\]\[9\]
*1868 po_0\.regf_0\.rf\[11\]\[0\]
*1869 po_0\.regf_0\.rf\[11\]\[10\]
*1870 po_0\.regf_0\.rf\[11\]\[11\]
*1871 po_0\.regf_0\.rf\[11\]\[12\]
*1872 po_0\.regf_0\.rf\[11\]\[13\]
*1873 po_0\.regf_0\.rf\[11\]\[14\]
*1874 po_0\.regf_0\.rf\[11\]\[15\]
*1875 po_0\.regf_0\.rf\[11\]\[1\]
*1876 po_0\.regf_0\.rf\[11\]\[2\]
*1877 po_0\.regf_0\.rf\[11\]\[3\]
*1878 po_0\.regf_0\.rf\[11\]\[4\]
*1879 po_0\.regf_0\.rf\[11\]\[5\]
*1880 po_0\.regf_0\.rf\[11\]\[6\]
*1881 po_0\.regf_0\.rf\[11\]\[7\]
*1882 po_0\.regf_0\.rf\[11\]\[8\]
*1883 po_0\.regf_0\.rf\[11\]\[9\]
*1884 po_0\.regf_0\.rf\[12\]\[0\]
*1885 po_0\.regf_0\.rf\[12\]\[10\]
*1886 po_0\.regf_0\.rf\[12\]\[11\]
*1887 po_0\.regf_0\.rf\[12\]\[12\]
*1888 po_0\.regf_0\.rf\[12\]\[13\]
*1889 po_0\.regf_0\.rf\[12\]\[14\]
*1890 po_0\.regf_0\.rf\[12\]\[15\]
*1891 po_0\.regf_0\.rf\[12\]\[1\]
*1892 po_0\.regf_0\.rf\[12\]\[2\]
*1893 po_0\.regf_0\.rf\[12\]\[3\]
*1894 po_0\.regf_0\.rf\[12\]\[4\]
*1895 po_0\.regf_0\.rf\[12\]\[5\]
*1896 po_0\.regf_0\.rf\[12\]\[6\]
*1897 po_0\.regf_0\.rf\[12\]\[7\]
*1898 po_0\.regf_0\.rf\[12\]\[8\]
*1899 po_0\.regf_0\.rf\[12\]\[9\]
*1900 po_0\.regf_0\.rf\[13\]\[0\]
*1901 po_0\.regf_0\.rf\[13\]\[10\]
*1902 po_0\.regf_0\.rf\[13\]\[11\]
*1903 po_0\.regf_0\.rf\[13\]\[12\]
*1904 po_0\.regf_0\.rf\[13\]\[13\]
*1905 po_0\.regf_0\.rf\[13\]\[14\]
*1906 po_0\.regf_0\.rf\[13\]\[15\]
*1907 po_0\.regf_0\.rf\[13\]\[1\]
*1908 po_0\.regf_0\.rf\[13\]\[2\]
*1909 po_0\.regf_0\.rf\[13\]\[3\]
*1910 po_0\.regf_0\.rf\[13\]\[4\]
*1911 po_0\.regf_0\.rf\[13\]\[5\]
*1912 po_0\.regf_0\.rf\[13\]\[6\]
*1913 po_0\.regf_0\.rf\[13\]\[7\]
*1914 po_0\.regf_0\.rf\[13\]\[8\]
*1915 po_0\.regf_0\.rf\[13\]\[9\]
*1916 po_0\.regf_0\.rf\[14\]\[0\]
*1917 po_0\.regf_0\.rf\[14\]\[10\]
*1918 po_0\.regf_0\.rf\[14\]\[11\]
*1919 po_0\.regf_0\.rf\[14\]\[12\]
*1920 po_0\.regf_0\.rf\[14\]\[13\]
*1921 po_0\.regf_0\.rf\[14\]\[14\]
*1922 po_0\.regf_0\.rf\[14\]\[15\]
*1923 po_0\.regf_0\.rf\[14\]\[1\]
*1924 po_0\.regf_0\.rf\[14\]\[2\]
*1925 po_0\.regf_0\.rf\[14\]\[3\]
*1926 po_0\.regf_0\.rf\[14\]\[4\]
*1927 po_0\.regf_0\.rf\[14\]\[5\]
*1928 po_0\.regf_0\.rf\[14\]\[6\]
*1929 po_0\.regf_0\.rf\[14\]\[7\]
*1930 po_0\.regf_0\.rf\[14\]\[8\]
*1931 po_0\.regf_0\.rf\[14\]\[9\]
*1932 po_0\.regf_0\.rf\[15\]\[0\]
*1933 po_0\.regf_0\.rf\[15\]\[10\]
*1934 po_0\.regf_0\.rf\[15\]\[11\]
*1935 po_0\.regf_0\.rf\[15\]\[12\]
*1936 po_0\.regf_0\.rf\[15\]\[13\]
*1937 po_0\.regf_0\.rf\[15\]\[14\]
*1938 po_0\.regf_0\.rf\[15\]\[15\]
*1939 po_0\.regf_0\.rf\[15\]\[1\]
*1940 po_0\.regf_0\.rf\[15\]\[2\]
*1941 po_0\.regf_0\.rf\[15\]\[3\]
*1942 po_0\.regf_0\.rf\[15\]\[4\]
*1943 po_0\.regf_0\.rf\[15\]\[5\]
*1944 po_0\.regf_0\.rf\[15\]\[6\]
*1945 po_0\.regf_0\.rf\[15\]\[7\]
*1946 po_0\.regf_0\.rf\[15\]\[8\]
*1947 po_0\.regf_0\.rf\[15\]\[9\]
*1948 po_0\.regf_0\.rf\[1\]\[0\]
*1949 po_0\.regf_0\.rf\[1\]\[10\]
*1950 po_0\.regf_0\.rf\[1\]\[11\]
*1951 po_0\.regf_0\.rf\[1\]\[12\]
*1952 po_0\.regf_0\.rf\[1\]\[13\]
*1953 po_0\.regf_0\.rf\[1\]\[14\]
*1954 po_0\.regf_0\.rf\[1\]\[15\]
*1955 po_0\.regf_0\.rf\[1\]\[1\]
*1956 po_0\.regf_0\.rf\[1\]\[2\]
*1957 po_0\.regf_0\.rf\[1\]\[3\]
*1958 po_0\.regf_0\.rf\[1\]\[4\]
*1959 po_0\.regf_0\.rf\[1\]\[5\]
*1960 po_0\.regf_0\.rf\[1\]\[6\]
*1961 po_0\.regf_0\.rf\[1\]\[7\]
*1962 po_0\.regf_0\.rf\[1\]\[8\]
*1963 po_0\.regf_0\.rf\[1\]\[9\]
*1964 po_0\.regf_0\.rf\[2\]\[0\]
*1965 po_0\.regf_0\.rf\[2\]\[10\]
*1966 po_0\.regf_0\.rf\[2\]\[11\]
*1967 po_0\.regf_0\.rf\[2\]\[12\]
*1968 po_0\.regf_0\.rf\[2\]\[13\]
*1969 po_0\.regf_0\.rf\[2\]\[14\]
*1970 po_0\.regf_0\.rf\[2\]\[15\]
*1971 po_0\.regf_0\.rf\[2\]\[1\]
*1972 po_0\.regf_0\.rf\[2\]\[2\]
*1973 po_0\.regf_0\.rf\[2\]\[3\]
*1974 po_0\.regf_0\.rf\[2\]\[4\]
*1975 po_0\.regf_0\.rf\[2\]\[5\]
*1976 po_0\.regf_0\.rf\[2\]\[6\]
*1977 po_0\.regf_0\.rf\[2\]\[7\]
*1978 po_0\.regf_0\.rf\[2\]\[8\]
*1979 po_0\.regf_0\.rf\[2\]\[9\]
*1980 po_0\.regf_0\.rf\[3\]\[0\]
*1981 po_0\.regf_0\.rf\[3\]\[10\]
*1982 po_0\.regf_0\.rf\[3\]\[11\]
*1983 po_0\.regf_0\.rf\[3\]\[12\]
*1984 po_0\.regf_0\.rf\[3\]\[13\]
*1985 po_0\.regf_0\.rf\[3\]\[14\]
*1986 po_0\.regf_0\.rf\[3\]\[15\]
*1987 po_0\.regf_0\.rf\[3\]\[1\]
*1988 po_0\.regf_0\.rf\[3\]\[2\]
*1989 po_0\.regf_0\.rf\[3\]\[3\]
*1990 po_0\.regf_0\.rf\[3\]\[4\]
*1991 po_0\.regf_0\.rf\[3\]\[5\]
*1992 po_0\.regf_0\.rf\[3\]\[6\]
*1993 po_0\.regf_0\.rf\[3\]\[7\]