*SPEF "ieee 1481-1999"
*DESIGN "vahid6i"
*DATE "11:11:11 Fri 11 11, 1111"
*VENDOR "OpenRCX"
*PROGRAM "Parallel Extraction"
*VERSION "1.0"
*DESIGN_FLOW "NAME_SCOPE LOCAL" "PIN_CAP NONE"
*DIVIDER /
*DELIMITER :
*BUS_DELIMITER []
*T_UNIT 1 NS
*C_UNIT 1 PF
*R_UNIT 1 OHM
*L_UNIT 1 HENRY

*NAME_MAP
*1 D_R_data[0]
*2 D_R_data[10]
*3 D_R_data[11]
*4 D_R_data[12]
*5 D_R_data[13]
*6 D_R_data[14]
*7 D_R_data[15]
*8 D_R_data[1]
*9 D_R_data[2]
*10 D_R_data[3]
*11 D_R_data[4]
*12 D_R_data[5]
*13 D_R_data[6]
*14 D_R_data[7]
*15 D_R_data[8]
*16 D_R_data[9]
*17 D_W_data[0]
*18 D_W_data[10]
*19 D_W_data[11]
*20 D_W_data[12]
*21 D_W_data[13]
*22 D_W_data[14]
*23 D_W_data[15]
*24 D_W_data[1]
*25 D_W_data[2]
*26 D_W_data[3]
*27 D_W_data[4]
*28 D_W_data[5]
*29 D_W_data[6]
*30 D_W_data[7]
*31 D_W_data[8]
*32 D_W_data[9]
*33 D_addr[0]
*34 D_addr[1]
*35 D_addr[2]
*36 D_addr[3]
*37 D_addr[4]
*38 D_addr[5]
*39 D_addr[6]
*40 D_addr[7]
*41 D_rd
*42 D_wr
*43 I_addr[0]
*44 I_addr[10]
*45 I_addr[11]
*46 I_addr[12]
*47 I_addr[13]
*48 I_addr[14]
*49 I_addr[15]
*50 I_addr[1]
*51 I_addr[2]
*52 I_addr[3]
*53 I_addr[4]
*54 I_addr[5]
*55 I_addr[6]
*56 I_addr[7]
*57 I_addr[8]
*58 I_addr[9]
*59 I_data[0]
*60 I_data[10]
*61 I_data[11]
*62 I_data[12]
*63 I_data[13]
*64 I_data[14]
*65 I_data[15]
*66 I_data[1]
*67 I_data[2]
*68 I_data[3]
*69 I_data[4]
*70 I_data[5]
*71 I_data[6]
*72 I_data[7]
*73 I_data[8]
*74 I_data[9]
*75 I_rd
*78 clock
*79 led_clock
*80 leds[0]
*81 leds[1]
*82 leds[2]
*83 leds[3]
*84 reset
*85 _0000_
*86 _0001_
*87 _0002_
*88 _0003_
*89 _0004_
*90 _0005_
*91 _0006_
*92 _0007_
*93 _0008_
*94 _0009_
*95 _0010_
*96 _0011_
*97 _0012_
*98 _0013_
*99 _0014_
*100 _0015_
*101 _0016_
*102 _0017_
*103 _0018_
*104 _0019_
*105 _0020_
*106 _0021_
*107 _0022_
*108 _0023_
*109 _0024_
*110 _0025_
*111 _0026_
*112 _0027_
*113 _0028_
*114 _0029_
*115 _0030_
*116 _0031_
*117 _0032_
*118 _0033_
*119 _0034_
*120 _0035_
*121 _0036_
*122 _0037_
*123 _0038_
*124 _0039_
*125 _0040_
*126 _0041_
*127 _0042_
*128 _0043_
*129 _0044_
*130 _0045_
*131 _0046_
*132 _0047_
*133 _0048_
*134 _0049_
*135 _0050_
*136 _0051_
*137 _0052_
*138 _0053_
*139 _0054_
*140 _0055_
*141 _0056_
*142 _0057_
*143 _0058_
*144 _0059_
*145 _0060_
*146 _0061_
*147 _0062_
*148 _0063_
*149 _0064_
*150 _0065_
*151 _0066_
*152 _0067_
*153 _0068_
*154 _0069_
*155 _0070_
*156 _0071_
*157 _0072_
*158 _0073_
*159 _0074_
*160 _0075_
*161 _0076_
*162 _0077_
*163 _0078_
*164 _0079_
*165 _0080_
*166 _0081_
*167 _0082_
*168 _0083_
*169 _0084_
*170 _0085_
*171 _0086_
*172 _0087_
*173 _0088_
*174 _0089_
*175 _0090_
*176 _0091_
*177 _0092_
*178 _0093_
*179 _0094_
*180 _0095_
*181 _0096_
*182 _0097_
*183 _0098_
*184 _0099_
*185 _0100_
*186 _0101_
*187 _0102_
*188 _0103_
*189 _0104_
*190 _0105_
*191 _0106_
*192 _0107_
*193 _0108_
*194 _0109_
*195 _0110_
*196 _0111_
*197 _0112_
*198 _0113_
*199 _0114_
*200 _0115_
*201 _0116_
*202 _0117_
*203 _0118_
*204 _0119_
*205 _0120_
*206 _0121_
*207 _0122_
*208 _0123_
*209 _0124_
*210 _0125_
*211 _0126_
*212 _0127_
*213 _0128_
*214 _0129_
*215 _0130_
*216 _0131_
*217 _0132_
*218 _0133_
*219 _0134_
*220 _0135_
*221 _0136_
*222 _0137_
*223 _0138_
*224 _0139_
*225 _0140_
*226 _0141_
*227 _0142_
*228 _0143_
*229 _0144_
*230 _0145_
*231 _0146_
*232 _0147_
*233 _0148_
*234 _0149_
*235 _0150_
*236 _0151_
*237 _0152_
*238 _0153_
*239 _0154_
*240 _0155_
*241 _0156_
*242 _0157_
*243 _0158_
*244 _0159_
*245 _0160_
*246 _0161_
*247 _0162_
*248 _0163_
*249 _0164_
*250 _0165_
*251 _0166_
*252 _0167_
*253 _0168_
*254 _0169_
*255 _0170_
*256 _0171_
*257 _0172_
*258 _0173_
*259 _0174_
*260 _0175_
*261 _0176_
*262 _0177_
*263 _0178_
*264 _0179_
*265 _0180_
*266 _0181_
*267 _0182_
*268 _0183_
*269 _0184_
*270 _0185_
*271 _0186_
*272 _0187_
*273 _0188_
*274 _0189_
*275 _0190_
*276 _0191_
*277 _0192_
*278 _0193_
*279 _0194_
*280 _0195_
*281 _0196_
*282 _0197_
*283 _0198_
*284 _0199_
*285 _0200_
*286 _0201_
*287 _0202_
*288 _0203_
*289 _0204_
*290 _0205_
*291 _0206_
*292 _0207_
*293 _0208_
*294 _0209_
*295 _0210_
*296 _0211_
*297 _0212_
*298 _0213_
*299 _0214_
*300 _0215_
*301 _0216_
*302 _0217_
*303 _0218_
*304 _0219_
*305 _0220_
*306 _0221_
*307 _0222_
*308 _0223_
*309 _0224_
*310 _0225_
*311 _0226_
*312 _0227_
*313 _0228_
*314 _0229_
*315 _0230_
*316 _0231_
*317 _0232_
*318 _0233_
*319 _0234_
*320 _0235_
*321 _0236_
*322 _0237_
*323 _0238_
*324 _0239_
*325 _0240_
*326 _0241_
*327 _0242_
*328 _0243_
*329 _0244_
*330 _0245_
*331 _0246_
*332 _0247_
*333 _0248_
*334 _0249_
*335 _0250_
*336 _0251_
*337 _0252_
*338 _0253_
*339 _0254_
*340 _0255_
*341 _0256_
*342 _0257_
*343 _0258_
*344 _0259_
*345 _0260_
*346 _0261_
*347 _0262_
*348 _0263_
*349 _0264_
*350 _0265_
*351 _0266_
*352 _0267_
*353 _0268_
*354 _0269_
*355 _0270_
*356 _0271_
*357 _0272_
*358 _0273_
*359 _0274_
*360 _0275_
*361 _0276_
*362 _0277_
*363 _0278_
*364 _0279_
*365 _0280_
*366 _0281_
*367 _0282_
*368 _0283_
*369 _0284_
*370 _0285_
*371 _0286_
*372 _0287_
*373 _0288_
*374 _0289_
*375 _0290_
*376 _0291_
*377 _0292_
*378 _0293_
*379 _0294_
*380 _0295_
*381 _0296_
*382 _0297_
*383 _0298_
*384 _0299_
*385 _0300_
*386 _0301_
*387 _0302_
*388 _0303_
*389 _0304_
*390 _0305_
*391 _0306_
*392 _0307_
*393 _0308_
*394 _0309_
*395 _0310_
*396 _0311_
*397 _0312_
*398 _0313_
*399 _0314_
*400 _0315_
*401 _0316_
*402 _0317_
*403 _0318_
*404 _0319_
*405 _0320_
*406 _0321_
*407 _0322_
*408 _0323_
*409 _0324_
*410 _0325_
*411 _0326_
*412 _0327_
*413 _0328_
*414 _0329_
*415 _0330_
*416 _0331_
*417 _0332_
*418 _0333_
*419 _0334_
*420 _0335_
*421 _0336_
*422 _0337_
*423 _0338_
*424 _0339_
*425 _0340_
*426 _0341_
*427 _0342_
*428 _0343_
*429 _0344_
*430 _0345_
*431 _0346_
*432 _0347_
*433 _0348_
*434 _0349_
*435 _0350_
*436 _0351_
*437 _0352_
*438 _0353_
*439 _0354_
*440 _0355_
*441 _0356_
*442 _0357_
*443 _0358_
*444 _0359_
*445 _0360_
*446 _0361_
*447 _0362_
*448 _0363_
*449 _0364_
*450 _0365_
*451 _0366_
*452 _0367_
*453 _0368_
*454 _0369_
*455 _0370_
*456 _0371_
*457 _0372_
*458 _0373_
*459 _0374_
*460 _0375_
*461 _0376_
*462 _0377_
*463 _0378_
*464 _0379_
*465 _0380_
*466 _0381_
*467 _0382_
*468 _0383_
*469 _0384_
*470 _0385_
*471 _0386_
*472 _0387_
*473 _0388_
*474 _0389_
*475 _0390_
*476 _0391_
*477 _0392_
*478 _0393_
*479 _0394_
*480 _0395_
*481 _0396_
*482 _0397_
*483 _0398_
*484 _0399_
*485 _0400_
*486 _0401_
*487 _0402_
*488 _0403_
*489 _0404_
*490 _0405_
*491 _0406_
*492 _0407_
*493 _0408_
*494 _0409_
*495 _0410_
*496 _0411_
*497 _0412_
*498 _0413_
*499 _0414_
*500 _0415_
*501 _0416_
*502 _0417_
*503 _0418_
*504 _0419_
*505 _0420_
*506 _0421_
*507 _0422_
*508 _0423_
*509 _0424_
*510 _0425_
*511 _0426_
*512 _0427_
*513 _0428_
*514 _0429_
*515 _0430_
*516 _0431_
*517 _0432_
*518 _0433_
*519 _0434_
*520 _0435_
*521 _0436_
*522 _0437_
*523 _0438_
*524 _0439_
*525 _0440_
*526 _0441_
*527 _0442_
*528 _0443_
*529 _0444_
*530 _0445_
*531 _0446_
*532 _0447_
*533 _0448_
*534 _0449_
*535 _0450_
*536 _0451_
*537 _0452_
*538 _0453_
*539 _0454_
*540 _0455_
*541 _0456_
*542 _0457_
*543 _0458_
*544 _0459_
*545 _0460_
*546 _0461_
*547 _0462_
*548 _0463_
*549 _0464_
*550 _0465_
*551 _0466_
*552 _0467_
*553 _0468_
*554 _0469_
*555 _0470_
*556 _0471_
*557 _0472_
*558 _0473_
*559 _0474_
*560 _0475_
*561 _0476_
*562 _0477_
*563 _0478_
*564 _0479_
*565 _0480_
*566 _0481_
*567 _0482_
*568 _0483_
*569 _0484_
*570 _0485_
*571 _0486_
*572 _0487_
*573 _0488_
*574 _0489_
*575 _0490_
*576 _0491_
*577 _0492_
*578 _0493_
*579 _0494_
*580 _0495_
*581 _0496_
*582 _0497_
*583 _0498_
*584 _0499_
*585 _0500_
*586 _0501_
*587 _0502_
*588 _0503_
*589 _0504_
*590 _0505_
*591 _0506_
*592 _0507_
*593 _0508_
*594 _0509_
*595 _0510_
*596 _0511_
*597 _0512_
*598 _0513_
*599 _0514_
*600 _0515_
*601 _0516_
*602 _0517_
*603 _0518_
*604 _0519_
*605 _0520_
*606 _0521_
*607 _0522_
*608 _0523_
*609 _0524_
*610 _0525_
*611 _0526_
*612 _0527_
*613 _0528_
*614 _0529_
*615 _0530_
*616 _0531_
*617 _0532_
*618 _0533_
*619 _0534_
*620 _0535_
*621 _0536_
*622 _0537_
*623 _0538_
*624 _0539_
*625 _0540_
*626 _0541_
*627 _0542_
*628 _0543_
*629 _0544_
*630 _0545_
*631 _0546_
*632 _0547_
*633 _0548_
*634 _0549_
*635 _0550_
*636 _0551_
*637 _0552_
*638 _0553_
*639 _0554_
*640 _0555_
*641 _0556_
*642 _0557_
*643 _0558_
*644 _0559_
*645 _0560_
*646 _0561_
*647 _0562_
*648 _0563_
*649 _0564_
*650 _0565_
*651 _0566_
*652 _0567_
*653 _0568_
*654 _0569_
*655 _0570_
*656 _0571_
*657 _0572_
*658 _0573_
*659 _0574_
*660 _0575_
*661 _0576_
*662 _0577_
*663 _0578_
*664 _0579_
*665 _0580_
*666 _0581_
*667 _0582_
*668 _0583_
*669 _0584_
*670 _0585_
*671 _0586_
*672 _0587_
*673 _0588_
*674 _0589_
*675 _0590_
*676 _0591_
*677 _0592_
*678 _0593_
*679 _0594_
*680 _0595_
*681 _0596_
*682 _0597_
*683 _0598_
*684 _0599_
*685 _0600_
*686 _0601_
*687 _0602_
*688 _0603_
*689 _0604_
*690 _0605_
*691 _0606_
*692 _0607_
*693 _0608_
*694 _0609_
*695 _0610_
*696 _0611_
*697 _0612_
*698 _0613_
*699 _0614_
*700 _0615_
*701 _0616_
*702 _0617_
*703 _0618_
*704 _0619_
*705 _0620_
*706 _0621_
*707 _0622_
*708 _0623_
*709 _0624_
*710 _0625_
*711 _0626_
*712 _0627_
*713 _0628_
*714 _0629_
*715 _0630_
*716 _0631_
*717 _0632_
*718 _0633_
*719 _0634_
*720 _0635_
*721 _0636_
*722 _0637_
*723 _0638_
*724 _0639_
*725 _0640_
*726 _0641_
*727 _0642_
*728 _0643_
*729 _0644_
*730 _0645_
*731 _0646_
*732 _0647_
*733 _0648_
*734 _0649_
*735 _0650_
*736 _0651_
*737 _0652_
*738 _0653_
*739 _0654_
*740 _0655_
*741 _0656_
*742 _0657_
*743 _0658_
*744 _0659_
*745 _0660_
*746 _0661_
*747 _0662_
*748 _0663_
*749 _0664_
*750 _0665_
*751 _0666_
*752 _0667_
*753 _0668_
*754 _0669_
*755 _0670_
*756 _0671_
*757 _0672_
*758 _0673_
*759 _0674_
*760 _0675_
*761 _0676_
*762 _0677_
*763 _0678_
*764 _0679_
*765 _0680_
*766 _0681_
*767 _0682_
*768 _0683_
*769 _0684_
*770 _0685_
*771 _0686_
*772 _0687_
*773 _0688_
*774 _0689_
*775 _0690_
*776 _0691_
*777 _0692_
*778 _0693_
*779 _0694_
*780 _0695_
*781 _0696_
*782 _0697_
*783 _0698_
*784 _0699_
*785 _0700_
*786 _0701_
*787 _0702_
*788 _0703_
*789 _0704_
*790 _0705_
*791 _0706_
*792 _0707_
*793 _0708_
*794 _0709_
*795 _0710_
*796 _0711_
*797 _0712_
*798 _0713_
*799 _0714_
*800 _0715_
*801 _0716_
*802 _0717_
*803 _0718_
*804 _0719_
*805 _0720_
*806 _0721_
*807 _0722_
*808 _0723_
*809 _0724_
*810 _0725_
*811 _0726_
*812 _0727_
*813 _0728_
*814 _0729_
*815 _0730_
*816 _0731_
*817 _0732_
*818 _0733_
*819 _0734_
*820 _0735_
*821 _0736_
*822 _0737_
*823 _0738_
*824 _0739_
*825 _0740_
*826 _0741_
*827 _0742_
*828 _0743_
*829 _0744_
*830 _0745_
*831 _0746_
*832 _0747_
*833 _0748_
*834 _0749_
*835 _0750_
*836 _0751_
*837 _0752_
*838 _0753_
*839 _0754_
*840 _0755_
*841 _0756_
*842 _0757_
*843 _0758_
*844 _0759_
*845 _0760_
*846 _0761_
*847 _0762_
*848 _0763_
*849 _0764_
*850 _0765_
*851 _0766_
*852 _0767_
*853 _0768_
*854 _0769_
*855 _0770_
*856 _0771_
*857 _0772_
*858 _0773_
*859 _0774_
*860 _0775_
*861 _0776_
*862 _0777_
*863 _0778_
*864 _0779_
*865 _0780_
*866 _0781_
*867 _0782_
*868 _0783_
*869 _0784_
*870 _0785_
*871 _0786_
*872 _0787_
*873 _0788_
*874 _0789_
*875 _0790_
*876 _0791_
*877 _0792_
*878 _0793_
*879 _0794_
*880 _0795_
*881 _0796_
*882 _0797_
*883 _0798_
*884 _0799_
*885 _0800_
*886 _0801_
*887 _0802_
*888 _0803_
*889 _0804_
*890 _0805_
*891 _0806_
*892 _0807_
*893 _0808_
*894 _0809_
*895 _0810_
*896 _0811_
*897 _0812_
*898 _0813_
*899 _0814_
*900 _0815_
*901 _0816_
*902 _0817_
*903 _0818_
*904 _0819_
*905 _0820_
*906 _0821_
*907 _0822_
*908 _0823_
*909 _0824_
*910 _0825_
*911 _0826_
*912 _0827_
*913 _0828_
*914 _0829_
*915 _0830_
*916 _0831_
*917 _0832_
*918 _0833_
*919 _0834_
*920 _0835_
*921 _0836_
*922 _0837_
*923 _0838_
*924 _0839_
*925 _0840_
*926 _0841_
*927 _0842_
*928 _0843_
*929 _0844_
*930 _0845_
*931 _0846_
*932 _0847_
*933 _0848_
*934 _0849_
*935 _0850_
*936 _0851_
*937 _0852_
*938 _0853_
*939 _0854_
*940 _0855_
*941 _0856_
*942 _0857_
*943 _0858_
*944 _0859_
*945 _0860_
*946 _0861_
*947 _0862_
*948 _0863_
*949 _0864_
*950 _0865_
*951 _0866_
*952 _0867_
*953 _0868_
*954 _0869_
*955 _0870_
*956 _0871_
*957 _0872_
*958 _0873_
*959 _0874_
*960 _0875_
*961 _0876_
*962 _0877_
*963 _0878_
*964 _0879_
*965 _0880_
*966 _0881_
*967 _0882_
*968 _0883_
*969 _0884_
*970 _0885_
*971 _0886_
*972 _0887_
*973 _0888_
*974 _0889_
*975 _0890_
*976 _0891_
*977 _0892_
*978 _0893_
*979 _0894_
*980 _0895_
*981 _0896_
*982 _0897_
*983 _0898_
*984 _0899_
*985 _0900_
*986 _0901_
*987 _0902_
*988 _0903_
*989 _0904_
*990 _0905_
*991 _0906_
*992 _0907_
*993 _0908_
*994 _0909_
*995 _0910_
*996 _0911_
*997 _0912_
*998 _0913_
*999 _0914_
*1000 _0915_
*1001 _0916_
*1002 _0917_
*1003 _0918_
*1004 _0919_
*1005 _0920_
*1006 _0921_
*1007 _0922_
*1008 _0923_
*1009 _0924_
*1010 _0925_
*1011 _0926_
*1012 _0927_
*1013 _0928_
*1014 _0929_
*1015 _0930_
*1016 _0931_
*1017 _0932_
*1018 _0933_
*1019 _0934_
*1020 _0935_
*1021 _0936_
*1022 _0937_
*1023 _0938_
*1024 _0939_
*1025 _0940_
*1026 _0941_
*1027 _0942_
*1028 _0943_
*1029 _0944_
*1030 _0945_
*1031 _0946_
*1032 _0947_
*1033 _0948_
*1034 _0949_
*1035 _0950_
*1036 _0951_
*1037 _0952_
*1038 _0953_
*1039 _0954_
*1040 _0955_
*1041 _0956_
*1042 _0957_
*1043 _0958_
*1044 _0959_
*1045 _0960_
*1046 _0961_
*1047 _0962_
*1048 _0963_
*1049 _0964_
*1050 _0965_
*1051 _0966_
*1052 _0967_
*1053 _0968_
*1054 _0969_
*1055 _0970_
*1056 _0971_
*1057 _0972_
*1058 _0973_
*1059 _0974_
*1060 _0975_
*1061 _0976_
*1062 _0977_
*1063 _0978_
*1064 _0979_
*1065 _0980_
*1066 _0981_
*1067 _0982_
*1068 _0983_
*1069 _0984_
*1070 _0985_
*1071 _0986_
*1072 _0987_
*1073 _0988_
*1074 _0989_
*1075 _0990_
*1076 _0991_
*1077 _0992_
*1078 _0993_
*1079 _0994_
*1080 _0995_
*1081 _0996_
*1082 _0997_
*1083 _0998_
*1084 _0999_
*1085 _1000_
*1086 _1001_
*1087 _1002_
*1088 _1003_
*1089 _1004_
*1090 _1005_
*1091 _1006_
*1092 _1007_
*1093 _1008_
*1094 _1009_
*1095 _1010_
*1096 _1011_
*1097 _1012_
*1098 _1013_
*1099 _1014_
*1100 _1015_
*1101 _1016_
*1102 _1017_
*1103 _1018_
*1104 _1019_
*1105 _1020_
*1106 _1021_
*1107 _1022_
*1108 _1023_
*1109 _1024_
*1110 _1025_
*1111 _1026_
*1112 _1027_
*1113 _1028_
*1114 _1029_
*1115 _1030_
*1116 _1031_
*1117 _1032_
*1118 _1033_
*1119 _1034_
*1120 _1035_
*1121 _1036_
*1122 _1037_
*1123 _1038_
*1124 _1039_
*1125 _1040_
*1126 _1041_
*1127 _1042_
*1128 _1043_
*1129 _1044_
*1130 _1045_
*1131 _1046_
*1132 _1047_
*1133 _1048_
*1134 _1049_
*1135 _1050_
*1136 _1051_
*1137 _1052_
*1138 _1053_
*1139 _1054_
*1140 _1055_
*1141 _1056_
*1142 _1057_
*1143 _1058_
*1144 _1059_
*1145 _1060_
*1146 _1061_
*1147 _1062_
*1148 _1063_
*1149 _1064_
*1150 _1065_
*1151 _1066_
*1152 _1067_
*1153 _1068_
*1154 _1069_
*1155 _1070_
*1156 _1071_
*1157 _1072_
*1158 _1073_
*1159 _1074_
*1160 _1075_
*1161 _1076_
*1162 _1077_
*1163 _1078_
*1164 _1079_
*1165 _1080_
*1166 _1081_
*1167 _1082_
*1168 _1083_
*1169 _1084_
*1170 _1085_
*1171 _1086_
*1172 _1087_
*1173 _1088_
*1174 _1089_
*1175 _1090_
*1176 _1091_
*1177 _1092_
*1178 _1093_
*1179 _1094_
*1180 _1095_
*1181 _1096_
*1182 _1097_
*1183 _1098_
*1184 _1099_
*1185 _1100_
*1186 _1101_
*1187 _1102_
*1188 _1103_
*1189 _1104_
*1190 _1105_
*1191 _1106_
*1192 _1107_
*1193 _1108_
*1194 _1109_
*1195 _1110_
*1196 _1111_
*1197 _1112_
*1198 _1113_
*1199 _1114_
*1200 _1115_
*1201 _1116_
*1202 _1117_
*1203 _1118_
*1204 _1119_
*1205 _1120_
*1206 _1121_
*1207 _1122_
*1208 _1123_
*1209 _1124_
*1210 _1125_
*1211 _1126_
*1212 _1127_
*1213 _1128_
*1214 _1129_
*1215 _1130_
*1216 _1131_
*1217 _1132_
*1218 _1133_
*1219 _1134_
*1220 _1135_
*1221 _1136_
*1222 _1137_
*1223 _1138_
*1224 _1139_
*1225 _1140_
*1226 _1141_
*1227 _1142_
*1228 _1143_
*1229 _1144_
*1230 _1145_
*1231 _1146_
*1232 _1147_
*1233 _1148_
*1234 _1149_
*1235 _1150_
*1236 _1151_
*1237 _1152_
*1238 _1153_
*1239 _1154_
*1240 _1155_
*1241 _1156_
*1242 _1157_
*1243 _1158_
*1244 _1159_
*1245 _1160_
*1246 _1161_
*1247 _1162_
*1248 _1163_
*1249 _1164_
*1250 _1165_
*1251 _1166_
*1252 _1167_
*1253 _1168_
*1254 _1169_
*1255 _1170_
*1256 _1171_
*1257 _1172_
*1258 _1173_
*1259 _1174_
*1260 _1175_
*1261 _1176_
*1262 _1177_
*1263 _1178_
*1264 _1179_
*1265 _1180_
*1266 _1181_
*1267 _1182_
*1268 _1183_
*1269 _1184_
*1270 _1185_
*1271 _1186_
*1272 _1187_
*1273 _1188_
*1274 _1189_
*1275 _1190_
*1276 _1191_
*1277 _1192_
*1278 _1193_
*1279 _1194_
*1280 _1195_
*1281 _1196_
*1282 _1197_
*1283 _1198_
*1284 _1199_
*1285 _1200_
*1286 _1201_
*1287 _1202_
*1288 _1203_
*1289 _1204_
*1290 _1205_
*1291 _1206_
*1292 _1207_
*1293 _1208_
*1294 _1209_
*1295 _1210_
*1296 _1211_
*1297 _1212_
*1298 _1213_
*1299 _1214_
*1300 _1215_
*1301 _1216_
*1302 _1217_
*1303 _1218_
*1304 _1219_
*1305 _1220_
*1306 _1221_
*1307 _1222_
*1308 _1223_
*1309 _1224_
*1310 _1225_
*1311 _1226_
*1312 _1227_
*1313 _1228_
*1314 _1229_
*1315 _1230_
*1316 _1231_
*1317 _1232_
*1318 _1233_
*1319 _1234_
*1320 _1235_
*1321 _1236_
*1322 _1237_
*1323 _1238_
*1324 _1239_
*1325 _1240_
*1326 _1241_
*1327 _1242_
*1328 _1243_
*1329 _1244_
*1330 _1245_
*1331 _1246_
*1332 _1247_
*1333 _1248_
*1334 _1249_
*1335 _1250_
*1336 _1251_
*1337 _1252_
*1338 _1253_
*1339 _1254_
*1340 _1255_
*1341 _1256_
*1342 _1257_
*1343 _1258_
*1344 _1259_
*1345 _1260_
*1346 _1261_
*1347 _1262_
*1348 _1263_
*1349 _1264_
*1350 _1265_
*1351 _1266_
*1352 _1267_
*1353 _1268_
*1354 _1269_
*1355 _1270_
*1356 _1271_
*1357 _1272_
*1358 _1273_
*1359 _1274_
*1360 _1275_
*1361 _1276_
*1362 _1277_
*1363 _1278_
*1364 _1279_
*1365 _1280_
*1366 _1281_
*1367 _1282_
*1368 _1283_
*1369 _1284_
*1370 _1285_
*1371 _1286_
*1372 _1287_
*1373 _1288_
*1374 _1289_
*1375 _1290_
*1376 _1291_
*1377 _1292_
*1378 _1293_
*1379 _1294_
*1380 _1295_
*1381 _1296_
*1382 _1297_
*1383 _1298_
*1384 _1299_
*1385 _1300_
*1386 _1301_
*1387 _1302_
*1388 _1303_
*1389 _1304_
*1390 _1305_
*1391 _1306_
*1392 _1307_
*1393 _1308_
*1394 _1309_
*1395 _1310_
*1396 _1311_
*1397 _1312_
*1398 _1313_
*1399 _1314_
*1400 _1315_
*1401 _1316_
*1402 _1317_
*1403 _1318_
*1404 _1319_
*1405 _1320_
*1406 _1321_
*1407 _1322_
*1408 _1323_
*1409 _1324_
*1410 _1325_
*1411 _1326_
*1412 _1327_
*1413 _1328_
*1414 _1329_
*1415 _1330_
*1416 _1331_
*1417 _1332_
*1418 _1333_
*1419 _1334_
*1420 _1335_
*1421 _1336_
*1422 _1337_
*1423 _1338_
*1424 _1339_
*1425 _1340_
*1426 _1341_
*1427 _1342_
*1428 _1343_
*1429 _1344_
*1430 _1345_
*1431 _1346_
*1432 _1347_
*1433 _1348_
*1434 _1349_
*1435 _1350_
*1436 _1351_
*1437 _1352_
*1438 _1353_
*1439 _1354_
*1440 _1355_
*1441 _1356_
*1442 _1357_
*1443 _1358_
*1444 _1359_
*1445 _1360_
*1446 _1361_
*1447 _1362_
*1448 _1363_
*1449 _1364_
*1450 _1365_
*1451 _1366_
*1452 _1367_
*1453 _1368_
*1454 _1369_
*1455 _1370_
*1456 _1371_
*1457 _1372_
*1458 _1373_
*1459 _1374_
*1460 _1375_
*1461 _1376_
*1462 _1377_
*1463 _1378_
*1464 _1379_
*1465 _1380_
*1466 _1381_
*1467 _1382_
*1468 _1383_
*1469 _1384_
*1470 _1385_
*1471 _1386_
*1472 _1387_
*1473 _1388_
*1474 _1389_
*1475 _1390_
*1476 _1391_
*1477 _1392_
*1478 _1393_
*1479 _1394_
*1480 _1395_
*1481 _1396_
*1482 _1397_
*1483 _1398_
*1484 _1399_
*1485 _1400_
*1486 _1401_
*1487 _1402_
*1488 _1403_
*1489 _1404_
*1490 _1405_
*1491 _1406_
*1492 _1407_
*1493 _1408_
*1494 _1409_
*1495 _1410_
*1496 _1411_
*1497 _1412_
*1498 _1413_
*1499 _1414_
*1500 _1415_
*1501 _1416_
*1502 _1417_
*1503 _1418_
*1504 _1419_
*1505 _1420_
*1506 _1421_
*1507 _1422_
*1508 _1423_
*1509 _1424_
*1510 _1425_
*1511 _1426_
*1512 _1427_
*1513 _1428_
*1514 _1429_
*1515 _1430_
*1516 _1431_
*1517 _1432_
*1518 _1433_
*1519 _1434_
*1520 _1435_
*1521 _1436_
*1522 _1437_
*1523 _1438_
*1524 _1439_
*1525 _1440_
*1526 _1441_
*1527 _1442_
*1528 _1443_
*1529 _1444_
*1530 _1445_
*1531 _1446_
*1532 _1447_
*1533 _1448_
*1534 _1449_
*1535 _1450_
*1536 _1451_
*1537 _1452_
*1538 _1453_
*1539 _1454_
*1540 _1455_
*1541 _1456_
*1542 _1457_
*1543 _1458_
*1544 _1459_
*1545 _1460_
*1546 _1461_
*1547 _1462_
*1548 _1463_
*1549 _1464_
*1550 _1465_
*1551 _1466_
*1552 _1467_
*1553 _1468_
*1554 _1469_
*1555 _1470_
*1556 _1471_
*1557 _1472_
*1558 _1473_
*1559 _1474_
*1560 _1475_
*1561 _1476_
*1562 _1477_
*1563 _1478_
*1564 _1479_
*1565 _1480_
*1566 _1481_
*1567 _1482_
*1568 _1483_
*1569 _1484_
*1570 _1485_
*1571 _1486_
*1572 _1487_
*1573 _1488_
*1574 _1489_
*1575 _1490_
*1576 _1491_
*1577 _1492_
*1578 _1493_
*1579 _1494_
*1580 _1495_
*1581 _1496_
*1582 _1497_
*1583 _1498_
*1584 _1499_
*1585 _1500_
*1586 _1501_
*1587 _1502_
*1588 _1503_
*1589 _1504_
*1590 _1505_
*1591 _1506_
*1592 _1507_
*1593 _1508_
*1594 _1509_
*1595 _1510_
*1596 _1511_
*1597 _1512_
*1598 _1513_
*1599 _1514_
*1600 _1515_
*1601 _1516_
*1602 _1517_
*1603 _1518_
*1604 _1519_
*1605 _1520_
*1606 _1521_
*1607 _1522_
*1608 _1523_
*1609 _1524_
*1610 _1525_
*1611 _1526_
*1612 _1527_
*1613 _1528_
*1614 _1529_
*1615 _1530_
*1616 _1531_
*1617 _1532_
*1618 _1533_
*1619 _1534_
*1620 _1535_
*1621 _1536_
*1622 _1537_
*1623 _1538_
*1624 _1539_
*1625 _1540_
*1626 _1541_
*1627 _1542_
*1628 _1543_
*1629 _1544_
*1630 _1545_
*1631 _1546_
*1632 _1547_
*1633 _1548_
*1634 _1549_
*1635 _1550_
*1636 _1551_
*1637 _1552_
*1638 _1553_
*1639 _1554_
*1640 _1555_
*1641 _1556_
*1642 _1557_
*1643 _1558_
*1644 _1559_
*1645 _1560_
*1646 _1561_
*1647 _1562_
*1648 _1563_
*1649 _1564_
*1650 _1565_
*1651 _1566_
*1652 _1567_
*1653 _1568_
*1654 _1569_
*1655 _1570_
*1656 _1571_
*1657 _1572_
*1658 _1573_
*1659 _1574_
*1660 _1575_
*1661 _1576_
*1662 _1577_
*1663 _1578_
*1664 _1579_
*1665 _1580_
*1666 _1581_
*1667 _1582_
*1668 _1583_
*1669 _1584_
*1670 _1585_
*1671 _1586_
*1672 _1587_
*1673 _1588_
*1674 _1589_
*1675 _1590_
*1676 _1591_
*1677 _1592_
*1678 _1593_
*1679 _1594_
*1680 _1595_
*1681 _1596_
*1682 _1597_
*1683 _1598_
*1684 _1599_
*1685 _1600_
*1686 _1601_
*1687 _1602_
*1688 _1603_
*1689 _1604_
*1690 _1605_
*1691 _1606_
*1692 _1607_
*1693 _1608_
*1694 _1609_
*1695 _1610_
*1696 _1611_
*1697 _1612_
*1698 _1613_
*1699 _1614_
*1700 _1615_
*1701 _1616_
*1702 _1617_
*1703 _1618_
*1704 _1619_
*1705 _1620_
*1706 _1621_
*1707 _1622_
*1708 _1623_
*1709 _1624_
*1710 _1625_
*1711 _1626_
*1712 _1627_
*1713 _1628_
*1714 _1629_
*1715 _1630_
*1716 _1631_
*1717 _1632_
*1718 _1633_
*1719 _1634_
*1720 _1635_
*1721 _1636_
*1722 _1637_
*1723 _1638_
*1724 _1639_
*1725 net1
*1726 net10
*1727 net100
*1728 net101
*1729 net102
*1730 net103
*1731 net104
*1732 net105
*1733 net106
*1734 net107
*1735 net108
*1736 net109
*1737 net11
*1738 net110
*1739 net111
*1740 net112
*1741 net113
*1742 net114
*1743 net115
*1744 net116
*1745 net117
*1746 net118
*1747 net119
*1748 net12
*1749 net120
*1750 net121
*1751 net122
*1752 net123
*1753 net124
*1754 net125
*1755 net126
*1756 net127
*1757 net128
*1758 net129
*1759 net13
*1760 net130
*1761 net131
*1762 net132
*1763 net133
*1764 net134
*1765 net135
*1766 net136
*1767 net137
*1768 net138
*1769 net139
*1770 net14
*1771 net140
*1772 net141
*1773 net142
*1774 net143
*1775 net144
*1776 net145
*1777 net146
*1778 net147
*1779 net148
*1780 net149
*1781 net15
*1782 net150
*1783 net151
*1784 net152
*1785 net153
*1786 net154
*1787 net155
*1788 net156
*1789 net157
*1790 net158
*1791 net159
*1792 net16
*1793 net160
*1794 net161
*1795 net162
*1796 net163
*1797 net164
*1798 net165
*1799 net166
*1800 net167
*1801 net168
*1802 net169
*1803 net17
*1804 net170
*1805 net171
*1806 net172
*1807 net173
*1808 net174
*1809 net175
*1810 net176
*1811 net177
*1812 net178
*1813 net179
*1814 net18
*1815 net180
*1816 net181
*1817 net182
*1818 net183
*1819 net184
*1820 net185
*1821 net186
*1822 net187
*1823 net188
*1824 net189
*1825 net19
*1826 net190
*1827 net191
*1828 net2
*1829 net20
*1830 net21
*1831 net22
*1832 net23
*1833 net24
*1834 net25
*1835 net26
*1836 net27
*1837 net28
*1838 net29
*1839 net3
*1840 net30
*1841 net31
*1842 net32
*1843 net33
*1844 net34
*1845 net35
*1846 net36
*1847 net37
*1848 net38
*1849 net39
*1850 net4
*1851 net40
*1852 net41
*1853 net42
*1854 net43
*1855 net44
*1856 net45
*1857 net46
*1858 net47
*1859 net48
*1860 net49
*1861 net5
*1862 net50
*1863 net51
*1864 net52
*1865 net53
*1866 net54
*1867 net55
*1868 net56
*1869 net57
*1870 net58
*1871 net59
*1872 net6
*1873 net60
*1874 net61
*1875 net62
*1876 net63
*1877 net64
*1878 net65
*1879 net66
*1880 net67
*1881 net68
*1882 net69
*1883 net7
*1884 net70
*1885 net71
*1886 net72
*1887 net73
*1888 net74
*1889 net75
*1890 net76
*1891 net77
*1892 net78
*1893 net79
*1894 net8
*1895 net80
*1896 net81
*1897 net82
*1898 net83
*1899 net84
*1900 net85
*1901 net86
*1902 net87
*1903 net88
*1904 net89
*1905 net9
*1906 net90
*1907 net91
*1908 net92
*1909 net93
*1910 net94
*1911 net95
*1912 net96
*1913 net97
*1914 net98
*1915 net99
*1916 po_0\._1_\[0\]
*1917 po_0\._1_\[10\]
*1918 po_0\._1_\[11\]
*1919 po_0\._1_\[12\]
*1920 po_0\._1_\[13\]
*1921 po_0\._1_\[14\]
*1922 po_0\._1_\[15\]
*1923 po_0\._1_\[1\]
*1924 po_0\._1_\[2\]
*1925 po_0\._1_\[3\]
*1926 po_0\._1_\[4\]
*1927 po_0\._1_\[5\]
*1928 po_0\._1_\[6\]
*1929 po_0\._1_\[7\]
*1930 po_0\._1_\[8\]
*1931 po_0\._1_\[9\]
*1932 po_0\.alu_0\._10_\[0\]
*1933 po_0\.alu_0\._10_\[10\]
*1934 po_0\.alu_0\._10_\[11\]
*1935 po_0\.alu_0\._10_\[12\]
*1936 po_0\.alu_0\._10_\[13\]
*1937 po_0\.alu_0\._10_\[14\]
*1938 po_0\.alu_0\._10_\[15\]
*1939 po_0\.alu_0\._10_\[1\]
*1940 po_0\.alu_0\._10_\[2\]
*1941 po_0\.alu_0\._10_\[3\]
*1942 po_0\.alu_0\._10_\[4\]
*1943 po_0\.alu_0\._10_\[5\]
*1944 po_0\.alu_0\._10_\[6\]
*1945 po_0\.alu_0\._10_\[7\]
*1946 po_0\.alu_0\._10_\[8\]
*1947 po_0\.alu_0\._10_\[9\]
*1948 po_0\.alu_0\._11_\[0\]
*1949 po_0\.alu_0\._11_\[10\]
*1950 po_0\.alu_0\._11_\[11\]
*1951 po_0\.alu_0\._11_\[12\]
*1952 po_0\.alu_0\._11_\[13\]
*1953 po_0\.alu_0\._11_\[14\]
*1954 po_0\.alu_0\._11_\[15\]
*1955 po_0\.alu_0\._11_\[1\]
*1956 po_0\.alu_0\._11_\[2\]
*1957 po_0\.alu_0\._11_\[3\]
*1958 po_0\.alu_0\._11_\[4\]
*1959 po_0\.alu_0\._11_\[5\]
*1960 po_0\.alu_0\._11_\[6\]
*1961 po_0\.alu_0\._11_\[7\]
*1962 po_0\.alu_0\._11_\[8\]
*1963 po_0\.alu_0\._11_\[9\]
*1964 po_0\.alu_0\.s0
*1965 po_0\.alu_0\.s1
*1966 po_0\.muxf_0\.rf_w_data\[0\]
*1967 po_0\.muxf_0\.rf_w_data\[1\]
*1968 po_0\.muxf_0\.rf_w_data\[2\]
*1969 po_0\.muxf_0\.rf_w_data\[3\]
*1970 po_0\.muxf_0\.rf_w_data\[4\]
*1971 po_0\.muxf_0\.rf_w_data\[5\]
*1972 po_0\.muxf_0\.rf_w_data\[6\]
*1973 po_0\.muxf_0\.rf_w_data\[7\]
*1974 po_0\.muxf_0\.s0
*1975 po_0\.muxf_0\.s1
*1976 po_0\.regf_0\._3_\[0\]
*1977 po_0\.regf_0\._3_\[10\]
*1978 po_0\.regf_0\._3_\[11\]
*1979 po_0\.regf_0\._3_\[12\]
*1980 po_0\.regf_0\._3_\[13\]
*1981 po_0\.regf_0\._3_\[14\]
*1982 po_0\.regf_0\._3_\[15\]
*1983 po_0\.regf_0\._3_\[1\]
*1984 po_0\.regf_0\._3_\[2\]
*1985 po_0\.regf_0\._3_\[3\]
*1986 po_0\.regf_0\._3_\[4\]
*1987 po_0\.regf_0\._3_\[5\]
*1988 po_0\.regf_0\._3_\[6\]
*1989 po_0\.regf_0\._3_\[7\]
*1990 po_0\.regf_0\._3_\[8\]
*1991 po_0\.regf_0\._3_\[9\]
*1992 po_0\.regf_0\._5_\[0\]
*1993 po_0\.regf_0\._5_\[10\]
*1994 po_0\.regf_0\._5_\[11\]
*1995 po_0\.regf_0\._5_\[12\]
*1996 po_0\.regf_0\._5_\[13\]
*1997 po_0\.regf_0\._5_\[14\]
*1998 po_0\.regf_0\._5_\[15\]
*1999 po_0\.regf_0\._5_\[1\]
*2000 po_0\.regf_0\._5_\[2\]
*2001 po_0\.regf_0\._5_\[3\]
*2002 po_0\.regf_0\._5_\[4\]
*2003 po_0\.regf_0\._5_\[5\]
*2004 po_0\.regf_0\._5_\[6\]
*2005 po_0\.regf_0\._5_\[7\]
*2006 po_0\.regf_0\._5_\[8\]
*2007 po_0\.regf_0\._5_\[9\]
*2008 po_0\.regf_0\.rf\[0\]\[0\]
*2009 po_0\.regf_0\.rf\[0\]\[10\]
*2010 po_0\.regf_0\.rf\[0\]\[11\]
*2011 po_0\.regf_0\.rf\[0\]\[12\]
*2012 po_0\.regf_0\.rf\[0\]\[13\]
*2013 po_0\.regf_0\.rf\[0\]\[14\]
*2014 po_0\.regf_0\.rf\[0\]\[15\]
*2015 po_0\.regf_0\.rf\[0\]\[1\]
*2016 po_0\.regf_0\.rf\[0\]\[2\]
*2017 po_0\.regf_0\.rf\[0\]\[3\]
*2018 po_0\.regf_0\.rf\[0\]\[4\]
*2019 po_0\.regf_0\.rf\[0\]\[5\]
*2020 po_0\.regf_0\.rf\[0\]\[6\]
*2021 po_0\.regf_0\.rf\[0\]\[7\]
*2022 po_0\.regf_0\.rf\[0\]\[8\]
*2023 po_0\.regf_0\.rf\[0\]\[9\]
*2024 po_0\.regf_0\.rf\[10\]\[0\]
*2025 po_0\.regf_0\.rf\[10\]\[10\]
*2026 po_0\.regf_0\.rf\[10\]\[11\]
*2027 po_0\.regf_0\.rf\[10\]\[12\]
*2028 po_0\.regf_0\.rf\[10\]\[13\]
*2029 po_0\.regf_0\.rf\[10\]\[14\]
*2030 po_0\.regf_0\.rf\[10\]\[15\]
*2031 po_0\.regf_0\.rf\[10\]\[1\]
*2032 po_0\.regf_0\.rf\[10\]\[2\]
*2033 po_0\.regf_0\.rf\[10\]\[3\]
*2034 po_0\.regf_0\.rf\[10\]\[4\]
*2035 po_0\.regf_0\.rf\[10\]\[5\]
*2036 po_0\.regf_0\.rf\[10\]\[6\]
*2037 po_0\.regf_0\.rf\[10\]\[7\]
*2038 po_0\.regf_0\.rf\[10\]\[8\]
*2039 po_0\.regf_0\.rf\[10\]\[9\]
*2040 po_0\.regf_0\.rf\[11\]\[0\]
*2041 po_0\.regf_0\.rf\[11\]\[10\]
*2042 po_0\.regf_0\.rf\[11\]\[11\]
*2043 po_0\.regf_0\.rf\[11\]\[12\]
*2044 po_0\.regf_0\.rf\[11\]\[13\]
*2045 po_0\.regf_0\.rf\[11\]\[14\]
*2046 po_0\.regf_0\.rf\[11\]\[15\]
*2047 po_0\.regf_0\.rf\[11\]\[1\]
*2048 po_0\.regf_0\.rf\[11\]\[2\]
*2049 po_0\.regf_0\.rf\[11\]\[3\]
*2050 po_0\.regf_0\.rf\[11\]\[4\]
*2051 po_0\.regf_0\.rf\[11\]\[5\]
*2052 po_0\.regf_0\.rf\[11\]\[6\]
*2053 po_0\.regf_0\.rf\[11\]\[7\]
*2054 po_0\.regf_0\.rf\[11\]\[8\]
*2055 po_0\.regf_0\.rf\[11\]\[9\]
*2056 po_0\.regf_0\.rf\[12\]\[0\]
*2057 po_0\.regf_0\.rf\[12\]\[10\]
*2058 po_0\.regf_0\.rf\[12\]\[11\]
*2059 po_0\.regf_0\.rf\[12\]\[12\]
*2060 po_0\.regf_0\.rf\[12\]\[13\]
*2061 po_0\.regf_0\.rf\[12\]\[14\]
*2062 po_0\.regf_0\.rf\[12\]\[15\]
*2063 po_0\.regf_0\.rf\[12\]\[1\]
*2064 po_0\.regf_0\.rf\[12\]\[2\]
*2065 po_0\.regf_0\.rf\[12\]\[3\]
*2066 po_0\.regf_0\.rf\[12\]\[4\]
*2067 po_0\.regf_0\.rf\[12\]\[5\]
*2068 po_0\.regf_0\.rf\[12\]\[6\]
*2069 po_0\.regf_0\.rf\[12\]\[7\]
*2070 po_0\.regf_0\.rf\[12\]\[8\]
*2071 po_0\.regf_0\.rf\[12\]\[9\]
*2072 po_0\.regf_0\.rf\[13\]\[0\]
*2073 po_0\.regf_0\.rf\[13\]\[10\]
*2074 po_0\.regf_0\.rf\[13\]\[11\]
*2075 po_0\.regf_0\.rf\[13\]\[12\]
*2076 po_0\.regf_0\.rf\[13\]\[13\]
*2077 po_0\.regf_0\.rf\[13\]\[14\]
*2078 po_0\.regf_0\.rf\[13\]\[15\]
*2079 po_0\.regf_0\.rf\[13\]\[1\]
*2080 po_0\.regf_0\.rf\[13\]\[2\]
*2081 po_0\.regf_0\.rf\[13\]\[3\]
*2082 po_0\.regf_0\.rf\[13\]\[4\]
*2083 po_0\.regf_0\.rf\[13\]\[5\]
*2084 po_0\.regf_0\.rf\[13\]\[6\]
*2085 po_0\.regf_0\.rf\[13\]\[7\]
*2086 po_0\.regf_0\.rf\[13\]\[8\]
*2087 po_0\.regf_0\.rf\[13\]\[9\]
*2088 po_0\.regf_0\.rf\[14\]\[0\]
*2089 po_0\.regf_0\.rf\[14\]\[10\]
*2090 po_0\.regf_0\.rf\[14\]\[11\]
*2091 po_0\.regf_0\.rf\[14\]\[12\]
*2092 po_0\.regf_0\.rf\[14\]\[13\]
*2093 po_0\.regf_0\.rf\[14\]\[14\]
*2094 po_0\.regf_0\.rf\[14\]\[15\]
*2095 po_0\.regf_0\.rf\[14\]\[1\]
*2096 po_0\.regf_0\.rf\[14\]\[2\]
*2097 po_0\.regf_0\.rf\[14\]\[3\]
*2098 po_0\.regf_0\.rf\[14\]\[4\]
*2099 po_0\.regf_0\.rf\[14\]\[5\]