* NGSPICE file created from vahid6i.ext - technology: sky130A

* Black-box entry subcircuit for sky130_fd_sc_hd__tapvpwrvgnd_1 abstract view
.subckt sky130_fd_sc_hd__tapvpwrvgnd_1 VGND VPWR
.ends

* Black-box entry subcircuit for sky130_fd_sc_hd__dfxtp_1 abstract view
.subckt sky130_fd_sc_hd__dfxtp_1 CLK D VGND VNB VPB VPWR Q
.ends

* Black-box entry subcircuit for sky130_fd_sc_hd__clkbuf_2 abstract view
.subckt sky130_fd_sc_hd__clkbuf_2 A VGND VNB VPB VPWR X
.ends

* Black-box entry subcircuit for sky130_fd_sc_hd__clkbuf_1 abstract view
.subckt sky130_fd_sc_hd__clkbuf_1 A VGND VNB VPB VPWR X
.ends

* Black-box entry subcircuit for sky130_ef_sc_hd__decap_12 abstract view
.subckt sky130_ef_sc_hd__decap_12 VGND VNB VPB VPWR
.ends

* Black-box entry subcircuit for sky130_fd_sc_hd__decap_3 abstract view
.subckt sky130_fd_sc_hd__decap_3 VGND VNB VPB VPWR
.ends

* Black-box entry subcircuit for sky130_fd_sc_hd__fill_1 abstract view
.subckt sky130_fd_sc_hd__fill_1 VGND VNB VPB VPWR
.ends

* Black-box entry subcircuit for sky130_fd_sc_hd__decap_6 abstract view
.subckt sky130_fd_sc_hd__decap_6 VGND VNB VPB VPWR
.ends

* Black-box entry subcircuit for sky130_fd_sc_hd__decap_8 abstract view
.subckt sky130_fd_sc_hd__decap_8 VGND VNB VPB VPWR
.ends

* Black-box entry subcircuit for sky130_fd_sc_hd__decap_4 abstract view
.subckt sky130_fd_sc_hd__decap_4 VGND VNB VPB VPWR
.ends

* Black-box entry subcircuit for sky130_fd_sc_hd__o22a_1 abstract view
.subckt sky130_fd_sc_hd__o22a_1 A1 A2 B1 B2 VGND VNB VPB VPWR X
.ends

* Black-box entry subcircuit for sky130_fd_sc_hd__mux2_1 abstract view
.subckt sky130_fd_sc_hd__mux2_1 A0 A1 S VGND VNB VPB VPWR X
.ends

* Black-box entry subcircuit for sky130_fd_sc_hd__mux4_1 abstract view
.subckt sky130_fd_sc_hd__mux4_1 A0 A1 A2 A3 S0 S1 VGND VNB VPB VPWR X
.ends

* Black-box entry subcircuit for sky130_fd_sc_hd__dlymetal6s2s_1 abstract view
.subckt sky130_fd_sc_hd__dlymetal6s2s_1 A VGND VNB VPB VPWR X
.ends

* Black-box entry subcircuit for sky130_fd_sc_hd__dfxtp_2 abstract view
.subckt sky130_fd_sc_hd__dfxtp_2 CLK D VGND VNB VPB VPWR Q
.ends

* Black-box entry subcircuit for sky130_fd_sc_hd__and3_2 abstract view
.subckt sky130_fd_sc_hd__and3_2 A B C VGND VNB VPB VPWR X
.ends

* Black-box entry subcircuit for sky130_fd_sc_hd__fill_2 abstract view
.subckt sky130_fd_sc_hd__fill_2 VGND VNB VPB VPWR
.ends

* Black-box entry subcircuit for sky130_fd_sc_hd__and2b_1 abstract view
.subckt sky130_fd_sc_hd__and2b_1 A_N B VGND VNB VPB VPWR X
.ends

* Black-box entry subcircuit for sky130_fd_sc_hd__inv_2 abstract view
.subckt sky130_fd_sc_hd__inv_2 A VGND VNB VPB VPWR Y
.ends

* Black-box entry subcircuit for sky130_fd_sc_hd__a21oi_1 abstract view
.subckt sky130_fd_sc_hd__a21oi_1 A1 A2 B1 VGND VNB VPB VPWR Y
.ends

* Black-box entry subcircuit for sky130_fd_sc_hd__clkbuf_4 abstract view
.subckt sky130_fd_sc_hd__clkbuf_4 A VGND VNB VPB VPWR X
.ends

* Black-box entry subcircuit for sky130_fd_sc_hd__a21o_1 abstract view
.subckt sky130_fd_sc_hd__a21o_1 A1 A2 B1 VGND VNB VPB VPWR X
.ends

* Black-box entry subcircuit for sky130_fd_sc_hd__diode_2 abstract view
.subckt sky130_fd_sc_hd__diode_2 DIODE VGND VNB VPB VPWR
.ends

* Black-box entry subcircuit for sky130_fd_sc_hd__nand2_1 abstract view
.subckt sky130_fd_sc_hd__nand2_1 A B VGND VNB VPB VPWR Y
.ends

* Black-box entry subcircuit for sky130_fd_sc_hd__o21ai_1 abstract view
.subckt sky130_fd_sc_hd__o21ai_1 A1 A2 B1 VGND VNB VPB VPWR Y
.ends

* Black-box entry subcircuit for sky130_fd_sc_hd__a21bo_1 abstract view
.subckt sky130_fd_sc_hd__a21bo_1 A1 A2 B1_N VGND VNB VPB VPWR X
.ends

* Black-box entry subcircuit for sky130_fd_sc_hd__buf_2 abstract view
.subckt sky130_fd_sc_hd__buf_2 A VGND VNB VPB VPWR X
.ends

* Black-box entry subcircuit for sky130_fd_sc_hd__ebufn_1 abstract view
.subckt sky130_fd_sc_hd__ebufn_1 A TE_B VGND VNB VPB VPWR Z
.ends

* Black-box entry subcircuit for sky130_fd_sc_hd__and2_1 abstract view
.subckt sky130_fd_sc_hd__and2_1 A B VGND VNB VPB VPWR X
.ends

* Black-box entry subcircuit for sky130_fd_sc_hd__a221o_4 abstract view
.subckt sky130_fd_sc_hd__a221o_4 A1 A2 B1 B2 C1 VGND VNB VPB VPWR X
.ends

* Black-box entry subcircuit for sky130_fd_sc_hd__xor2_1 abstract view
.subckt sky130_fd_sc_hd__xor2_1 A B VGND VNB VPB VPWR X
.ends

* Black-box entry subcircuit for sky130_fd_sc_hd__a21boi_1 abstract view
.subckt sky130_fd_sc_hd__a21boi_1 A1 A2 B1_N VGND VNB VPB VPWR Y
.ends

* Black-box entry subcircuit for sky130_fd_sc_hd__or2b_1 abstract view
.subckt sky130_fd_sc_hd__or2b_1 A B_N VGND VNB VPB VPWR X
.ends

* Black-box entry subcircuit for sky130_fd_sc_hd__nor2_2 abstract view
.subckt sky130_fd_sc_hd__nor2_2 A B VGND VNB VPB VPWR Y
.ends

* Black-box entry subcircuit for sky130_fd_sc_hd__nor4b_1 abstract view
.subckt sky130_fd_sc_hd__nor4b_1 A B C D_N VGND VNB VPB VPWR Y
.ends

* Black-box entry subcircuit for sky130_fd_sc_hd__or2b_2 abstract view
.subckt sky130_fd_sc_hd__or2b_2 A B_N VGND VNB VPB VPWR X
.ends

* Black-box entry subcircuit for sky130_fd_sc_hd__nor2_1 abstract view
.subckt sky130_fd_sc_hd__nor2_1 A B VGND VNB VPB VPWR Y
.ends

* Black-box entry subcircuit for sky130_fd_sc_hd__a31o_1 abstract view
.subckt sky130_fd_sc_hd__a31o_1 A1 A2 A3 B1 VGND VNB VPB VPWR X
.ends

* Black-box entry subcircuit for sky130_fd_sc_hd__or4bb_4 abstract view
.subckt sky130_fd_sc_hd__or4bb_4 A B C_N D_N VGND VNB VPB VPWR X
.ends

* Black-box entry subcircuit for sky130_fd_sc_hd__o311a_1 abstract view
.subckt sky130_fd_sc_hd__o311a_1 A1 A2 A3 B1 C1 VGND VNB VPB VPWR X
.ends

* Black-box entry subcircuit for sky130_fd_sc_hd__o21ai_4 abstract view
.subckt sky130_fd_sc_hd__o21ai_4 A1 A2 B1 VGND VNB VPB VPWR Y
.ends

* Black-box entry subcircuit for sky130_fd_sc_hd__a221oi_2 abstract view
.subckt sky130_fd_sc_hd__a221oi_2 A1 A2 B1 B2 C1 VGND VNB VPB VPWR Y
.ends

* Black-box entry subcircuit for sky130_fd_sc_hd__nor3_1 abstract view
.subckt sky130_fd_sc_hd__nor3_1 A B C VGND VNB VPB VPWR Y
.ends

* Black-box entry subcircuit for sky130_fd_sc_hd__a2bb2oi_2 abstract view
.subckt sky130_fd_sc_hd__a2bb2oi_2 A1_N A2_N B1 B2 VGND VNB VPB VPWR Y
.ends

* Black-box entry subcircuit for sky130_fd_sc_hd__dlxtp_1 abstract view
.subckt sky130_fd_sc_hd__dlxtp_1 D GATE VGND VNB VPB VPWR Q
.ends

* Black-box entry subcircuit for sky130_fd_sc_hd__nand3_1 abstract view
.subckt sky130_fd_sc_hd__nand3_1 A B C VGND VNB VPB VPWR Y
.ends

* Black-box entry subcircuit for sky130_fd_sc_hd__o211a_1 abstract view
.subckt sky130_fd_sc_hd__o211a_1 A1 A2 B1 C1 VGND VNB VPB VPWR X
.ends

* Black-box entry subcircuit for sky130_fd_sc_hd__a221o_2 abstract view
.subckt sky130_fd_sc_hd__a221o_2 A1 A2 B1 B2 C1 VGND VNB VPB VPWR X
.ends

* Black-box entry subcircuit for sky130_fd_sc_hd__a22o_1 abstract view
.subckt sky130_fd_sc_hd__a22o_1 A1 A2 B1 B2 VGND VNB VPB VPWR X
.ends

* Black-box entry subcircuit for sky130_fd_sc_hd__and4_4 abstract view
.subckt sky130_fd_sc_hd__and4_4 A B C D VGND VNB VPB VPWR X
.ends

* Black-box entry subcircuit for sky130_fd_sc_hd__ebufn_2 abstract view
.subckt sky130_fd_sc_hd__ebufn_2 A TE_B VGND VNB VPB VPWR Z
.ends

* Black-box entry subcircuit for sky130_fd_sc_hd__or2_1 abstract view
.subckt sky130_fd_sc_hd__or2_1 A B VGND VNB VPB VPWR X
.ends

* Black-box entry subcircuit for sky130_fd_sc_hd__a211o_1 abstract view
.subckt sky130_fd_sc_hd__a211o_1 A1 A2 B1 C1 VGND VNB VPB VPWR X
.ends

* Black-box entry subcircuit for sky130_fd_sc_hd__or3_1 abstract view
.subckt sky130_fd_sc_hd__or3_1 A B C VGND VNB VPB VPWR X
.ends

* Black-box entry subcircuit for sky130_fd_sc_hd__o22ai_2 abstract view
.subckt sky130_fd_sc_hd__o22ai_2 A1 A2 B1 B2 VGND VNB VPB VPWR Y
.ends

* Black-box entry subcircuit for sky130_fd_sc_hd__and3_4 abstract view
.subckt sky130_fd_sc_hd__and3_4 A B C VGND VNB VPB VPWR X
.ends

* Black-box entry subcircuit for sky130_fd_sc_hd__o31a_1 abstract view
.subckt sky130_fd_sc_hd__o31a_1 A1 A2 A3 B1 VGND VNB VPB VPWR X
.ends

* Black-box entry subcircuit for sky130_fd_sc_hd__and3_1 abstract view
.subckt sky130_fd_sc_hd__and3_1 A B C VGND VNB VPB VPWR X
.ends

* Black-box entry subcircuit for sky130_fd_sc_hd__and4b_2 abstract view
.subckt sky130_fd_sc_hd__and4b_2 A_N B C D VGND VNB VPB VPWR X
.ends

* Black-box entry subcircuit for sky130_fd_sc_hd__o2111ai_1 abstract view
.subckt sky130_fd_sc_hd__o2111ai_1 A1 A2 B1 C1 D1 VGND VNB VPB VPWR Y
.ends

* Black-box entry subcircuit for sky130_fd_sc_hd__o2bb2ai_1 abstract view
.subckt sky130_fd_sc_hd__o2bb2ai_1 A1_N A2_N B1 B2 VGND VNB VPB VPWR Y
.ends

* Black-box entry subcircuit for sky130_fd_sc_hd__and2b_2 abstract view
.subckt sky130_fd_sc_hd__and2b_2 A_N B VGND VNB VPB VPWR X
.ends

* Black-box entry subcircuit for sky130_fd_sc_hd__nand3b_1 abstract view
.subckt sky130_fd_sc_hd__nand3b_1 A_N B C VGND VNB VPB VPWR Y
.ends

* Black-box entry subcircuit for sky130_fd_sc_hd__o21a_1 abstract view
.subckt sky130_fd_sc_hd__o21a_1 A1 A2 B1 VGND VNB VPB VPWR X
.ends

* Black-box entry subcircuit for sky130_fd_sc_hd__a22oi_1 abstract view
.subckt sky130_fd_sc_hd__a22oi_1 A1 A2 B1 B2 VGND VNB VPB VPWR Y
.ends

* Black-box entry subcircuit for sky130_fd_sc_hd__a41o_1 abstract view
.subckt sky130_fd_sc_hd__a41o_1 A1 A2 A3 A4 B1 VGND VNB VPB VPWR X
.ends

* Black-box entry subcircuit for sky130_fd_sc_hd__buf_4 abstract view
.subckt sky130_fd_sc_hd__buf_4 A VGND VNB VPB VPWR X
.ends

* Black-box entry subcircuit for sky130_fd_sc_hd__nor3_4 abstract view
.subckt sky130_fd_sc_hd__nor3_4 A B C VGND VNB VPB VPWR Y
.ends

* Black-box entry subcircuit for sky130_fd_sc_hd__and4b_4 abstract view
.subckt sky130_fd_sc_hd__and4b_4 A_N B C D VGND VNB VPB VPWR X
.ends

* Black-box entry subcircuit for sky130_fd_sc_hd__nand2b_1 abstract view
.subckt sky130_fd_sc_hd__nand2b_1 A_N B VGND VNB VPB VPWR Y
.ends

* Black-box entry subcircuit for sky130_fd_sc_hd__and4_1 abstract view
.subckt sky130_fd_sc_hd__and4_1 A B C D VGND VNB VPB VPWR X
.ends

* Black-box entry subcircuit for sky130_fd_sc_hd__nand4_1 abstract view
.subckt sky130_fd_sc_hd__nand4_1 A B C D VGND VNB VPB VPWR Y
.ends

* Black-box entry subcircuit for sky130_fd_sc_hd__o2bb2a_1 abstract view
.subckt sky130_fd_sc_hd__o2bb2a_1 A1_N A2_N B1 B2 VGND VNB VPB VPWR X
.ends

* Black-box entry subcircuit for sky130_fd_sc_hd__a21oi_2 abstract view
.subckt sky130_fd_sc_hd__a21oi_2 A1 A2 B1 VGND VNB VPB VPWR Y
.ends

* Black-box entry subcircuit for sky130_fd_sc_hd__and4_2 abstract view
.subckt sky130_fd_sc_hd__and4_2 A B C D VGND VNB VPB VPWR X
.ends

* Black-box entry subcircuit for sky130_fd_sc_hd__a22o_2 abstract view
.subckt sky130_fd_sc_hd__a22o_2 A1 A2 B1 B2 VGND VNB VPB VPWR X
.ends

* Black-box entry subcircuit for sky130_fd_sc_hd__a31o_2 abstract view
.subckt sky130_fd_sc_hd__a31o_2 A1 A2 A3 B1 VGND VNB VPB VPWR X
.ends

* Black-box entry subcircuit for sky130_fd_sc_hd__or3b_1 abstract view
.subckt sky130_fd_sc_hd__or3b_1 A B C_N VGND VNB VPB VPWR X
.ends

* Black-box entry subcircuit for sky130_fd_sc_hd__xnor2_1 abstract view
.subckt sky130_fd_sc_hd__xnor2_1 A B VGND VNB VPB VPWR Y
.ends

* Black-box entry subcircuit for sky130_fd_sc_hd__or4bb_1 abstract view
.subckt sky130_fd_sc_hd__or4bb_1 A B C_N D_N VGND VNB VPB VPWR X
.ends

* Black-box entry subcircuit for sky130_fd_sc_hd__mux4_2 abstract view
.subckt sky130_fd_sc_hd__mux4_2 A0 A1 A2 A3 S0 S1 VGND VNB VPB VPWR X
.ends

* Black-box entry subcircuit for sky130_fd_sc_hd__a221o_1 abstract view
.subckt sky130_fd_sc_hd__a221o_1 A1 A2 B1 B2 C1 VGND VNB VPB VPWR X
.ends

* Black-box entry subcircuit for sky130_fd_sc_hd__a2bb2o_1 abstract view
.subckt sky130_fd_sc_hd__a2bb2o_1 A1_N A2_N B1 B2 VGND VNB VPB VPWR X
.ends

* Black-box entry subcircuit for sky130_fd_sc_hd__a22oi_2 abstract view
.subckt sky130_fd_sc_hd__a22oi_2 A1 A2 B1 B2 VGND VNB VPB VPWR Y
.ends

* Black-box entry subcircuit for sky130_fd_sc_hd__a211oi_1 abstract view
.subckt sky130_fd_sc_hd__a211oi_1 A1 A2 B1 C1 VGND VNB VPB VPWR Y
.ends

* Black-box entry subcircuit for sky130_fd_sc_hd__xnor2_2 abstract view
.subckt sky130_fd_sc_hd__xnor2_2 A B VGND VNB VPB VPWR Y
.ends

* Black-box entry subcircuit for sky130_fd_sc_hd__nor3b_1 abstract view
.subckt sky130_fd_sc_hd__nor3b_1 A B C_N VGND VNB VPB VPWR Y
.ends

* Black-box entry subcircuit for sky130_fd_sc_hd__o2bb2ai_4 abstract view
.subckt sky130_fd_sc_hd__o2bb2ai_4 A1_N A2_N B1 B2 VGND VNB VPB VPWR Y
.ends

* Black-box entry subcircuit for sky130_fd_sc_hd__o21bai_1 abstract view
.subckt sky130_fd_sc_hd__o21bai_1 A1 A2 B1_N VGND VNB VPB VPWR Y
.ends

* Black-box entry subcircuit for sky130_fd_sc_hd__o21bai_2 abstract view
.subckt sky130_fd_sc_hd__o21bai_2 A1 A2 B1_N VGND VNB VPB VPWR Y
.ends

* Black-box entry subcircuit for sky130_fd_sc_hd__clkinv_2 abstract view
.subckt sky130_fd_sc_hd__clkinv_2 A VGND VNB VPB VPWR Y
.ends

* Black-box entry subcircuit for sky130_fd_sc_hd__o221a_1 abstract view
.subckt sky130_fd_sc_hd__o221a_1 A1 A2 B1 B2 C1 VGND VNB VPB VPWR X
.ends

* Black-box entry subcircuit for sky130_fd_sc_hd__o21ba_1 abstract view
.subckt sky130_fd_sc_hd__o21ba_1 A1 A2 B1_N VGND VNB VPB VPWR X
.ends

* Black-box entry subcircuit for sky130_fd_sc_hd__o31ai_4 abstract view
.subckt sky130_fd_sc_hd__o31ai_4 A1 A2 A3 B1 VGND VNB VPB VPWR Y
.ends

* Black-box entry subcircuit for sky130_fd_sc_hd__or4b_1 abstract view
.subckt sky130_fd_sc_hd__or4b_1 A B C D_N VGND VNB VPB VPWR X
.ends

* Black-box entry subcircuit for sky130_fd_sc_hd__nand2_2 abstract view
.subckt sky130_fd_sc_hd__nand2_2 A B VGND VNB VPB VPWR Y
.ends

* Black-box entry subcircuit for sky130_fd_sc_hd__a31oi_2 abstract view
.subckt sky130_fd_sc_hd__a31oi_2 A1 A2 A3 B1 VGND VNB VPB VPWR Y
.ends

* Black-box entry subcircuit for sky130_fd_sc_hd__a2bb2oi_1 abstract view
.subckt sky130_fd_sc_hd__a2bb2oi_1 A1_N A2_N B1 B2 VGND VNB VPB VPWR Y
.ends

* Black-box entry subcircuit for sky130_fd_sc_hd__nor3b_2 abstract view
.subckt sky130_fd_sc_hd__nor3b_2 A B C_N VGND VNB VPB VPWR Y
.ends

* Black-box entry subcircuit for sky130_fd_sc_hd__o21ai_2 abstract view
.subckt sky130_fd_sc_hd__o21ai_2 A1 A2 B1 VGND VNB VPB VPWR Y
.ends

* Black-box entry subcircuit for sky130_fd_sc_hd__and3b_1 abstract view
.subckt sky130_fd_sc_hd__and3b_1 A_N B C VGND VNB VPB VPWR X
.ends

* Black-box entry subcircuit for sky130_fd_sc_hd__nor4_1 abstract view
.subckt sky130_fd_sc_hd__nor4_1 A B C D VGND VNB VPB VPWR Y
.ends

* Black-box entry subcircuit for sky130_fd_sc_hd__xor2_2 abstract view
.subckt sky130_fd_sc_hd__xor2_2 A B VGND VNB VPB VPWR X
.ends

* Black-box entry subcircuit for sky130_fd_sc_hd__nand2b_2 abstract view
.subckt sky130_fd_sc_hd__nand2b_2 A_N B VGND VNB VPB VPWR Y
.ends

* Black-box entry subcircuit for sky130_fd_sc_hd__o22ai_4 abstract view
.subckt sky130_fd_sc_hd__o22ai_4 A1 A2 B1 B2 VGND VNB VPB VPWR Y
.ends

* Black-box entry subcircuit for sky130_fd_sc_hd__or4_1 abstract view
.subckt sky130_fd_sc_hd__or4_1 A B C D VGND VNB VPB VPWR X
.ends

* Black-box entry subcircuit for sky130_fd_sc_hd__and4bb_1 abstract view
.subckt sky130_fd_sc_hd__and4bb_1 A_N B_N C D VGND VNB VPB VPWR X
.ends

* Black-box entry subcircuit for sky130_fd_sc_hd__and3b_4 abstract view
.subckt sky130_fd_sc_hd__and3b_4 A_N B C VGND VNB VPB VPWR X
.ends

* Black-box entry subcircuit for sky130_fd_sc_hd__a221oi_4 abstract view
.subckt sky130_fd_sc_hd__a221oi_4 A1 A2 B1 B2 C1 VGND VNB VPB VPWR Y
.ends

* Black-box entry subcircuit for sky130_fd_sc_hd__a21o_2 abstract view
.subckt sky130_fd_sc_hd__a21o_2 A1 A2 B1 VGND VNB VPB VPWR X
.ends

* Black-box entry subcircuit for sky130_fd_sc_hd__a41oi_2 abstract view
.subckt sky130_fd_sc_hd__a41oi_2 A1 A2 A3 A4 B1 VGND VNB VPB VPWR Y
.ends

* Black-box entry subcircuit for sky130_fd_sc_hd__o221ai_4 abstract view
.subckt sky130_fd_sc_hd__o221ai_4 A1 A2 B1 B2 C1 VGND VNB VPB VPWR Y
.ends

* Black-box entry subcircuit for sky130_fd_sc_hd__o211a_2 abstract view
.subckt sky130_fd_sc_hd__o211a_2 A1 A2 B1 C1 VGND VNB VPB VPWR X
.ends

* Black-box entry subcircuit for sky130_fd_sc_hd__o211ai_1 abstract view
.subckt sky130_fd_sc_hd__o211ai_1 A1 A2 B1 C1 VGND VNB VPB VPWR Y
.ends

* Black-box entry subcircuit for sky130_fd_sc_hd__or3_2 abstract view
.subckt sky130_fd_sc_hd__or3_2 A B C VGND VNB VPB VPWR X
.ends

* Black-box entry subcircuit for sky130_fd_sc_hd__a32o_1 abstract view
.subckt sky130_fd_sc_hd__a32o_1 A1 A2 A3 B1 B2 VGND VNB VPB VPWR X
.ends

* Black-box entry subcircuit for sky130_fd_sc_hd__o31ai_1 abstract view
.subckt sky130_fd_sc_hd__o31ai_1 A1 A2 A3 B1 VGND VNB VPB VPWR Y
.ends

* Black-box entry subcircuit for sky130_fd_sc_hd__a311o_1 abstract view
.subckt sky130_fd_sc_hd__a311o_1 A1 A2 A3 B1 C1 VGND VNB VPB VPWR X
.ends

* Black-box entry subcircuit for sky130_fd_sc_hd__o22ai_1 abstract view
.subckt sky130_fd_sc_hd__o22ai_1 A1 A2 B1 B2 VGND VNB VPB VPWR Y
.ends

* Black-box entry subcircuit for sky130_fd_sc_hd__a31oi_1 abstract view
.subckt sky130_fd_sc_hd__a31oi_1 A1 A2 A3 B1 VGND VNB VPB VPWR Y
.ends

* Black-box entry subcircuit for sky130_fd_sc_hd__and4b_1 abstract view
.subckt sky130_fd_sc_hd__and4b_1 A_N B C D VGND VNB VPB VPWR X
.ends

.subckt vahid6i D_R_data[0] D_R_data[10] D_R_data[11] D_R_data[12] D_R_data[13] D_R_data[14]
+ D_R_data[15] D_R_data[1] D_R_data[2] D_R_data[3] D_R_data[4] D_R_data[5] D_R_data[6]
+ D_R_data[7] D_R_data[8] D_R_data[9] D_W_data[0] D_W_data[10] D_W_data[11] D_W_data[12]
+ D_W_data[13] D_W_data[14] D_W_data[15] D_W_data[1] D_W_data[2] D_W_data[3] D_W_data[4]
+ D_W_data[5] D_W_data[6] D_W_data[7] D_W_data[8] D_W_data[9] D_addr[0] D_addr[1]
+ D_addr[2] D_addr[3] D_addr[4] D_addr[5] D_addr[6] D_addr[7] D_rd D_wr I_addr[0]
+ I_addr[10] I_addr[11] I_addr[12] I_addr[13] I_addr[14] I_addr[15] I_addr[1] I_addr[2]
+ I_addr[3] I_addr[4] I_addr[5] I_addr[6] I_addr[7] I_addr[8] I_addr[9] I_data[0]
+ I_data[10] I_data[11] I_data[12] I_data[13] I_data[14] I_data[15] I_data[1] I_data[2]
+ I_data[3] I_data[4] I_data[5] I_data[6] I_data[7] I_data[8] I_data[9] I_rd VGND
+ VPWR clock led_clock leds[0] leds[1] leds[2] leds[3] reset
XTAP_177 VGND VPWR sky130_fd_sc_hd__tapvpwrvgnd_1
XTAP_188 VGND VPWR sky130_fd_sc_hd__tapvpwrvgnd_1
XTAP_199 VGND VPWR sky130_fd_sc_hd__tapvpwrvgnd_1
X_3155_ net117 _0077_ VGND VGND VPWR VPWR po_0.regf_0.rf\[9\]\[13\] sky130_fd_sc_hd__dfxtp_1
X_3086_ net120 _0044_ VGND VGND VPWR VPWR po_0.regf_0.rf\[5\]\[12\] sky130_fd_sc_hd__dfxtp_1
X_2106_ _0705_ VGND VGND VPWR VPWR _0706_ sky130_fd_sc_hd__clkbuf_2
X_2037_ net50 VGND VGND VPWR VPWR _0644_ sky130_fd_sc_hd__clkbuf_2
X_2939_ _1273_ VGND VGND VPWR VPWR _0281_ sky130_fd_sc_hd__clkbuf_1
XFILLER_77_15 VGND VGND VPWR VPWR sky130_ef_sc_hd__decap_12
XFILLER_77_317 VGND VGND VPWR VPWR sky130_ef_sc_hd__decap_12
XFILLER_45_225 VGND VGND VPWR VPWR sky130_fd_sc_hd__decap_3
XFILLER_13_111 VGND VGND VPWR VPWR sky130_fd_sc_hd__fill_1
XFILLER_26_85 VGND VGND VPWR VPWR sky130_ef_sc_hd__decap_12
XFILLER_41_464 VGND VGND VPWR VPWR sky130_fd_sc_hd__decap_6
XFILLER_41_486 VGND VGND VPWR VPWR sky130_ef_sc_hd__decap_12
XFILLER_83_309 VGND VGND VPWR VPWR sky130_fd_sc_hd__decap_8
XFILLER_67_81 VGND VGND VPWR VPWR sky130_ef_sc_hd__decap_12
XFILLER_17_461 VGND VGND VPWR VPWR sky130_ef_sc_hd__decap_12
XFILLER_44_280 VGND VGND VPWR VPWR sky130_fd_sc_hd__decap_4
X_2724_ _1127_ _1115_ _1129_ _1130_ VGND VGND VPWR VPWR _1131_ sky130_fd_sc_hd__o22a_1
X_2655_ po_0.regf_0.rf\[10\]\[10\] _0982_ _1080_ VGND VGND VPWR VPWR _1085_ sky130_fd_sc_hd__mux2_1
X_1606_ po_0.regf_0.rf\[8\]\[0\] po_0.regf_0.rf\[9\]\[0\] po_0.regf_0.rf\[10\]\[0\]
+ po_0.regf_0.rf\[11\]\[0\] _1407_ _1409_ VGND VGND VPWR VPWR _1410_ sky130_fd_sc_hd__mux4_1
X_2586_ po_0.regf_0.rf\[12\]\[11\] _0984_ _1041_ VGND VGND VPWR VPWR _1047_ sky130_fd_sc_hd__mux2_1
Xfanout105 net108 VGND VGND VPWR VPWR net105 sky130_fd_sc_hd__clkbuf_1
Xfanout127 net129 VGND VGND VPWR VPWR net127 sky130_fd_sc_hd__dlymetal6s2s_1
Xfanout138 net145 VGND VGND VPWR VPWR net138 sky130_fd_sc_hd__clkbuf_2
Xfanout116 net117 VGND VGND VPWR VPWR net116 sky130_fd_sc_hd__dlymetal6s2s_1
X_1537_ _1356_ VGND VGND VPWR VPWR _1500_ sky130_fd_sc_hd__clkbuf_1
Xfanout149 net151 VGND VGND VPWR VPWR net149 sky130_fd_sc_hd__dlymetal6s2s_1
X_3207_ net117 _0129_ VGND VGND VPWR VPWR po_0.regf_0.rf\[13\]\[1\] sky130_fd_sc_hd__dfxtp_1
XFILLER_74_309 VGND VGND VPWR VPWR sky130_ef_sc_hd__decap_12
XFILLER_27_225 VGND VGND VPWR VPWR sky130_fd_sc_hd__decap_4
X_3138_ net160 _0008_ VGND VGND VPWR VPWR _0000_ sky130_fd_sc_hd__dfxtp_2
XFILLER_27_236 VGND VGND VPWR VPWR sky130_fd_sc_hd__decap_4
XFILLER_27_247 VGND VGND VPWR VPWR sky130_fd_sc_hd__decap_8
X_3069_ net141 _0027_ VGND VGND VPWR VPWR po_0.regf_0.rf\[7\]\[11\] sky130_fd_sc_hd__dfxtp_1
XFILLER_42_239 VGND VGND VPWR VPWR sky130_ef_sc_hd__decap_12
XFILLER_23_497 VGND VGND VPWR VPWR sky130_fd_sc_hd__decap_3
XFILLER_12_76 VGND VGND VPWR VPWR sky130_fd_sc_hd__decap_8
XFILLER_2_335 VGND VGND VPWR VPWR sky130_fd_sc_hd__fill_1
XFILLER_2_357 VGND VGND VPWR VPWR sky130_fd_sc_hd__decap_6
XFILLER_77_125 VGND VGND VPWR VPWR sky130_ef_sc_hd__decap_12
XFILLER_77_169 VGND VGND VPWR VPWR sky130_fd_sc_hd__decap_4
XFILLER_58_383 VGND VGND VPWR VPWR sky130_ef_sc_hd__decap_12
XFILLER_33_217 VGND VGND VPWR VPWR sky130_fd_sc_hd__decap_6
XFILLER_41_250 VGND VGND VPWR VPWR sky130_fd_sc_hd__decap_3
XFILLER_14_497 VGND VGND VPWR VPWR sky130_fd_sc_hd__decap_3
X_2440_ _0708_ _0709_ _0959_ VGND VGND VPWR VPWR _0960_ sky130_fd_sc_hd__and3_2
X_2371_ _0921_ VGND VGND VPWR VPWR _0065_ sky130_fd_sc_hd__clkbuf_1
XFILLER_1_390 VGND VGND VPWR VPWR sky130_fd_sc_hd__fill_2
XFILLER_32_261 VGND VGND VPWR VPWR sky130_fd_sc_hd__fill_1
XFILLER_20_489 VGND VGND VPWR VPWR sky130_fd_sc_hd__decap_6
X_2707_ net97 VGND VGND VPWR VPWR _1115_ sky130_fd_sc_hd__dlymetal6s2s_1
X_2638_ po_0.regf_0.rf\[10\]\[2\] _0965_ _1073_ VGND VGND VPWR VPWR _1076_ sky130_fd_sc_hd__mux2_1
X_2569_ po_0.regf_0.rf\[12\]\[3\] _0967_ _1034_ VGND VGND VPWR VPWR _1038_ sky130_fd_sc_hd__mux2_1
XFILLER_59_169 VGND VGND VPWR VPWR sky130_ef_sc_hd__decap_12
XFILLER_74_27 VGND VGND VPWR VPWR sky130_fd_sc_hd__fill_1
XFILLER_55_375 VGND VGND VPWR VPWR sky130_ef_sc_hd__decap_12
XFILLER_70_389 VGND VGND VPWR VPWR sky130_fd_sc_hd__decap_4
XFILLER_11_445 VGND VGND VPWR VPWR sky130_fd_sc_hd__decap_3
XFILLER_7_405 VGND VGND VPWR VPWR sky130_fd_sc_hd__decap_3
XFILLER_7_449 VGND VGND VPWR VPWR sky130_ef_sc_hd__decap_12
XFILLER_2_121 VGND VGND VPWR VPWR sky130_fd_sc_hd__fill_1
XFILLER_78_445 VGND VGND VPWR VPWR sky130_ef_sc_hd__decap_12
XFILLER_78_489 VGND VGND VPWR VPWR sky130_fd_sc_hd__decap_8
XFILLER_48_83 VGND VGND VPWR VPWR sky130_fd_sc_hd__fill_1
XFILLER_46_342 VGND VGND VPWR VPWR sky130_ef_sc_hd__decap_12
XFILLER_80_109 VGND VGND VPWR VPWR sky130_ef_sc_hd__decap_12
XFILLER_0_57 VGND VGND VPWR VPWR sky130_fd_sc_hd__decap_8
XFILLER_73_161 VGND VGND VPWR VPWR sky130_fd_sc_hd__fill_2
X_1940_ po_0.regf_0.rf\[8\]\[14\] po_0.regf_0.rf\[9\]\[14\] po_0.regf_0.rf\[10\]\[14\]
+ po_0.regf_0.rf\[11\]\[14\] _0474_ _0475_ VGND VGND VPWR VPWR _0561_ sky130_fd_sc_hd__mux4_1
XFILLER_9_55 VGND VGND VPWR VPWR sky130_fd_sc_hd__fill_1
X_1871_ _0418_ _0499_ VGND VGND VPWR VPWR _0500_ sky130_fd_sc_hd__and2b_1
XFILLER_6_493 VGND VGND VPWR VPWR sky130_fd_sc_hd__fill_1
X_2423_ _0950_ VGND VGND VPWR VPWR _0088_ sky130_fd_sc_hd__clkbuf_1
X_2354_ _0911_ VGND VGND VPWR VPWR _0058_ sky130_fd_sc_hd__clkbuf_1
X_2285_ net7 VGND VGND VPWR VPWR _0870_ sky130_fd_sc_hd__inv_2
XFILLER_56_139 VGND VGND VPWR VPWR sky130_fd_sc_hd__fill_1
XFILLER_52_301 VGND VGND VPWR VPWR sky130_fd_sc_hd__decap_6
XFILLER_37_386 VGND VGND VPWR VPWR sky130_fd_sc_hd__fill_1
XFILLER_52_356 VGND VGND VPWR VPWR sky130_fd_sc_hd__fill_1
XFILLER_20_253 VGND VGND VPWR VPWR sky130_fd_sc_hd__decap_6
XFILLER_47_117 VGND VGND VPWR VPWR sky130_fd_sc_hd__decap_4
XFILLER_28_375 VGND VGND VPWR VPWR sky130_ef_sc_hd__decap_12
XFILLER_43_301 VGND VGND VPWR VPWR sky130_fd_sc_hd__fill_1
XFILLER_43_334 VGND VGND VPWR VPWR sky130_fd_sc_hd__fill_2
XFILLER_43_356 VGND VGND VPWR VPWR sky130_fd_sc_hd__decap_4
XFILLER_34_41 VGND VGND VPWR VPWR sky130_ef_sc_hd__decap_12
XFILLER_11_220 VGND VGND VPWR VPWR sky130_fd_sc_hd__decap_4
XFILLER_70_197 VGND VGND VPWR VPWR sky130_fd_sc_hd__decap_8
XFILLER_50_95 VGND VGND VPWR VPWR sky130_ef_sc_hd__decap_12
XFILLER_3_441 VGND VGND VPWR VPWR sky130_fd_sc_hd__decap_6
XTAP_507 VGND VPWR sky130_fd_sc_hd__tapvpwrvgnd_1
XFILLER_3_485 VGND VGND VPWR VPWR sky130_ef_sc_hd__decap_12
XTAP_518 VGND VPWR sky130_fd_sc_hd__tapvpwrvgnd_1
XTAP_529 VGND VPWR sky130_fd_sc_hd__tapvpwrvgnd_1
XFILLER_78_253 VGND VGND VPWR VPWR sky130_fd_sc_hd__decap_8
X_2070_ _0666_ _0671_ _0672_ VGND VGND VPWR VPWR _0673_ sky130_fd_sc_hd__a21oi_1
XFILLER_38_139 VGND VGND VPWR VPWR sky130_fd_sc_hd__fill_1
XFILLER_81_429 VGND VGND VPWR VPWR sky130_ef_sc_hd__decap_12
XFILLER_75_81 VGND VGND VPWR VPWR sky130_ef_sc_hd__decap_12
XFILLER_19_386 VGND VGND VPWR VPWR sky130_fd_sc_hd__decap_6
XFILLER_46_194 VGND VGND VPWR VPWR sky130_fd_sc_hd__fill_2
XFILLER_61_142 VGND VGND VPWR VPWR sky130_fd_sc_hd__fill_2
XFILLER_61_153 VGND VGND VPWR VPWR sky130_fd_sc_hd__fill_1
X_2972_ _1291_ VGND VGND VPWR VPWR _0296_ sky130_fd_sc_hd__clkbuf_1
X_1923_ _0473_ _0545_ VGND VGND VPWR VPWR _0546_ sky130_fd_sc_hd__and2b_1
X_1854_ po_0.regf_0.rf\[0\]\[4\] po_0.regf_0.rf\[1\]\[4\] po_0.regf_0.rf\[2\]\[4\]
+ po_0.regf_0.rf\[3\]\[4\] _0433_ _0434_ VGND VGND VPWR VPWR _0485_ sky130_fd_sc_hd__mux4_1
X_1785_ _0419_ VGND VGND VPWR VPWR _0420_ sky130_fd_sc_hd__clkbuf_4
X_2406_ _0941_ VGND VGND VPWR VPWR _0080_ sky130_fd_sc_hd__clkbuf_1
X_3386_ net109 _0304_ VGND VGND VPWR VPWR po_0.regf_0.rf\[0\]\[15\] sky130_fd_sc_hd__dfxtp_1
X_2337_ _0902_ VGND VGND VPWR VPWR _0050_ sky130_fd_sc_hd__clkbuf_1
X_2268_ _0851_ _0853_ _0682_ VGND VGND VPWR VPWR _0854_ sky130_fd_sc_hd__a21o_1
XFILLER_37_150 VGND VGND VPWR VPWR sky130_ef_sc_hd__decap_12
X_2199_ po_0.regf_0.rf\[7\]\[7\] _0791_ _0781_ VGND VGND VPWR VPWR _0792_ sky130_fd_sc_hd__mux2_1
XFILLER_25_367 VGND VGND VPWR VPWR sky130_fd_sc_hd__decap_3
XFILLER_52_153 VGND VGND VPWR VPWR sky130_fd_sc_hd__decap_6
XFILLER_52_197 VGND VGND VPWR VPWR sky130_fd_sc_hd__fill_1
XFILLER_71_39 VGND VGND VPWR VPWR sky130_ef_sc_hd__decap_12
XFILLER_4_205 VGND VGND VPWR VPWR sky130_fd_sc_hd__fill_2
XFILLER_4_249 VGND VGND VPWR VPWR sky130_fd_sc_hd__decap_3
XFILLER_0_411 VGND VGND VPWR VPWR sky130_fd_sc_hd__decap_8
XFILLER_0_477 VGND VGND VPWR VPWR sky130_ef_sc_hd__decap_12
XFILLER_48_404 VGND VGND VPWR VPWR sky130_fd_sc_hd__decap_3
XFILLER_28_194 VGND VGND VPWR VPWR sky130_fd_sc_hd__fill_2
XFILLER_43_142 VGND VGND VPWR VPWR sky130_fd_sc_hd__fill_1
XFILLER_43_164 VGND VGND VPWR VPWR sky130_fd_sc_hd__decap_4
XFILLER_71_473 VGND VGND VPWR VPWR sky130_ef_sc_hd__decap_12
XFILLER_31_337 VGND VGND VPWR VPWR sky130_fd_sc_hd__decap_4
XANTENNA_5 po_0.regf_0._5_\[13\] VGND VGND VPWR VPWR sky130_fd_sc_hd__diode_2
X_1570_ net80 net99 VGND VGND VPWR VPWR _1381_ sky130_fd_sc_hd__nand2_1
XTAP_315 VGND VPWR sky130_fd_sc_hd__tapvpwrvgnd_1
XTAP_304 VGND VPWR sky130_fd_sc_hd__tapvpwrvgnd_1
XTAP_348 VGND VPWR sky130_fd_sc_hd__tapvpwrvgnd_1
XTAP_337 VGND VPWR sky130_fd_sc_hd__tapvpwrvgnd_1
XTAP_326 VGND VPWR sky130_fd_sc_hd__tapvpwrvgnd_1
X_3240_ net150 _0162_ VGND VGND VPWR VPWR po_0.regf_0.rf\[11\]\[2\] sky130_fd_sc_hd__dfxtp_1
XTAP_359 VGND VPWR sky130_fd_sc_hd__tapvpwrvgnd_1
X_3171_ net122 _0093_ VGND VGND VPWR VPWR po_0.regf_0.rf\[1\]\[13\] sky130_fd_sc_hd__dfxtp_1
XFILLER_13_3 VGND VGND VPWR VPWR sky130_ef_sc_hd__decap_12
XFILLER_39_437 VGND VGND VPWR VPWR sky130_fd_sc_hd__decap_8
X_2122_ _0699_ VGND VGND VPWR VPWR _0721_ sky130_fd_sc_hd__clkbuf_2
X_2053_ _0648_ _0654_ _0649_ VGND VGND VPWR VPWR _0658_ sky130_fd_sc_hd__o21ai_1
XFILLER_62_473 VGND VGND VPWR VPWR sky130_fd_sc_hd__decap_3
XFILLER_22_337 VGND VGND VPWR VPWR sky130_fd_sc_hd__decap_8
XFILLER_34_197 VGND VGND VPWR VPWR sky130_fd_sc_hd__fill_2
X_2955_ _1281_ VGND VGND VPWR VPWR _1282_ sky130_fd_sc_hd__clkbuf_4
X_1906_ po_0.regf_0.rf\[0\]\[10\] po_0.regf_0.rf\[1\]\[10\] po_0.regf_0.rf\[2\]\[10\]
+ po_0.regf_0.rf\[3\]\[10\] _0420_ _0422_ VGND VGND VPWR VPWR _0531_ sky130_fd_sc_hd__mux4_1
X_2886_ po_0.regf_0.rf\[3\]\[0\] _0705_ _1244_ VGND VGND VPWR VPWR _1245_ sky130_fd_sc_hd__mux2_1
X_1837_ po_0.regf_0.rf\[4\]\[3\] po_0.regf_0.rf\[5\]\[3\] po_0.regf_0.rf\[6\]\[3\]
+ po_0.regf_0.rf\[7\]\[3\] _0425_ _0426_ VGND VGND VPWR VPWR _0469_ sky130_fd_sc_hd__mux4_1
X_1768_ _0403_ _1445_ _1486_ VGND VGND VPWR VPWR _0404_ sky130_fd_sc_hd__a21bo_1
X_1699_ _0005_ VGND VGND VPWR VPWR _0343_ sky130_fd_sc_hd__buf_2
X_3438_ po_0.alu_0._10_\[13\] _1504_ VGND VGND VPWR VPWR po_0.alu_0._11_\[13\] sky130_fd_sc_hd__ebufn_1
XTAP_871 VGND VPWR sky130_fd_sc_hd__tapvpwrvgnd_1
XTAP_860 VGND VPWR sky130_fd_sc_hd__tapvpwrvgnd_1
X_3369_ net109 _0287_ VGND VGND VPWR VPWR po_0.regf_0.rf\[2\]\[14\] sky130_fd_sc_hd__dfxtp_1
XTAP_893 VGND VPWR sky130_fd_sc_hd__tapvpwrvgnd_1
XTAP_882 VGND VPWR sky130_fd_sc_hd__tapvpwrvgnd_1
XFILLER_57_278 VGND VGND VPWR VPWR sky130_fd_sc_hd__fill_2
XFILLER_82_27 VGND VGND VPWR VPWR sky130_fd_sc_hd__fill_1
XFILLER_25_142 VGND VGND VPWR VPWR sky130_fd_sc_hd__decap_3
XFILLER_53_473 VGND VGND VPWR VPWR sky130_fd_sc_hd__fill_1
XFILLER_80_281 VGND VGND VPWR VPWR sky130_ef_sc_hd__decap_12
XFILLER_25_186 VGND VGND VPWR VPWR sky130_fd_sc_hd__decap_3
XFILLER_53_495 VGND VGND VPWR VPWR sky130_fd_sc_hd__decap_4
XFILLER_9_308 VGND VGND VPWR VPWR sky130_ef_sc_hd__decap_12
Xoutput42 net42 VGND VGND VPWR VPWR D_W_data[1] sky130_fd_sc_hd__buf_2
Xoutput75 net95 VGND VGND VPWR VPWR I_addr[8] sky130_fd_sc_hd__buf_2
Xoutput53 net53 VGND VGND VPWR VPWR D_addr[2] sky130_fd_sc_hd__buf_2
Xoutput64 net64 VGND VGND VPWR VPWR I_addr[12] sky130_fd_sc_hd__buf_2
XFILLER_36_407 VGND VGND VPWR VPWR sky130_fd_sc_hd__decap_8
XFILLER_16_197 VGND VGND VPWR VPWR sky130_ef_sc_hd__decap_12
XFILLER_71_270 VGND VGND VPWR VPWR sky130_fd_sc_hd__decap_8
XFILLER_71_281 VGND VGND VPWR VPWR sky130_fd_sc_hd__decap_6
XFILLER_31_167 VGND VGND VPWR VPWR sky130_fd_sc_hd__fill_1
X_2740_ _1144_ _1145_ VGND VGND VPWR VPWR _1146_ sky130_fd_sc_hd__nand2_1