* NGSPICE file created from vahid6i.ext - technology: sky130A

* Black-box entry subcircuit for sky130_fd_sc_hd__tapvpwrvgnd_1 abstract view
.subckt sky130_fd_sc_hd__tapvpwrvgnd_1 VGND VPWR
.ends

* Black-box entry subcircuit for sky130_fd_sc_hd__decap_4 abstract view
.subckt sky130_fd_sc_hd__decap_4 VGND VNB VPB VPWR
.ends

* Black-box entry subcircuit for sky130_fd_sc_hd__decap_3 abstract view
.subckt sky130_fd_sc_hd__decap_3 VGND VNB VPB VPWR
.ends

* Black-box entry subcircuit for sky130_fd_sc_hd__mux2_1 abstract view
.subckt sky130_fd_sc_hd__mux2_1 A0 A1 S VGND VNB VPB VPWR X
.ends

* Black-box entry subcircuit for sky130_fd_sc_hd__and2b_1 abstract view
.subckt sky130_fd_sc_hd__and2b_1 A_N B VGND VNB VPB VPWR X
.ends

* Black-box entry subcircuit for sky130_fd_sc_hd__nor2_1 abstract view
.subckt sky130_fd_sc_hd__nor2_1 A B VGND VNB VPB VPWR Y
.ends

* Black-box entry subcircuit for sky130_ef_sc_hd__decap_12 abstract view
.subckt sky130_ef_sc_hd__decap_12 VGND VNB VPB VPWR
.ends

* Black-box entry subcircuit for sky130_fd_sc_hd__fill_2 abstract view
.subckt sky130_fd_sc_hd__fill_2 VGND VNB VPB VPWR
.ends

* Black-box entry subcircuit for sky130_fd_sc_hd__fill_1 abstract view
.subckt sky130_fd_sc_hd__fill_1 VGND VNB VPB VPWR
.ends

* Black-box entry subcircuit for sky130_fd_sc_hd__a32o_1 abstract view
.subckt sky130_fd_sc_hd__a32o_1 A1 A2 A3 B1 B2 VGND VNB VPB VPWR X
.ends

* Black-box entry subcircuit for sky130_fd_sc_hd__decap_8 abstract view
.subckt sky130_fd_sc_hd__decap_8 VGND VNB VPB VPWR
.ends

* Black-box entry subcircuit for sky130_fd_sc_hd__clkbuf_1 abstract view
.subckt sky130_fd_sc_hd__clkbuf_1 A VGND VNB VPB VPWR X
.ends

* Black-box entry subcircuit for sky130_fd_sc_hd__dlymetal6s2s_1 abstract view
.subckt sky130_fd_sc_hd__dlymetal6s2s_1 A VGND VNB VPB VPWR X
.ends

* Black-box entry subcircuit for sky130_fd_sc_hd__clkbuf_2 abstract view
.subckt sky130_fd_sc_hd__clkbuf_2 A VGND VNB VPB VPWR X
.ends

* Black-box entry subcircuit for sky130_fd_sc_hd__dfxtp_1 abstract view
.subckt sky130_fd_sc_hd__dfxtp_1 CLK D VGND VNB VPB VPWR Q
.ends

* Black-box entry subcircuit for sky130_fd_sc_hd__decap_6 abstract view
.subckt sky130_fd_sc_hd__decap_6 VGND VNB VPB VPWR
.ends

* Black-box entry subcircuit for sky130_fd_sc_hd__and4b_2 abstract view
.subckt sky130_fd_sc_hd__and4b_2 A_N B C D VGND VNB VPB VPWR X
.ends

* Black-box entry subcircuit for sky130_fd_sc_hd__buf_2 abstract view
.subckt sky130_fd_sc_hd__buf_2 A VGND VNB VPB VPWR X
.ends

* Black-box entry subcircuit for sky130_fd_sc_hd__mux4_1 abstract view
.subckt sky130_fd_sc_hd__mux4_1 A0 A1 A2 A3 S0 S1 VGND VNB VPB VPWR X
.ends

* Black-box entry subcircuit for sky130_fd_sc_hd__a22o_1 abstract view
.subckt sky130_fd_sc_hd__a22o_1 A1 A2 B1 B2 VGND VNB VPB VPWR X
.ends

* Black-box entry subcircuit for sky130_fd_sc_hd__o21ba_1 abstract view
.subckt sky130_fd_sc_hd__o21ba_1 A1 A2 B1_N VGND VNB VPB VPWR X
.ends

* Black-box entry subcircuit for sky130_fd_sc_hd__nand2_1 abstract view
.subckt sky130_fd_sc_hd__nand2_1 A B VGND VNB VPB VPWR Y
.ends

* Black-box entry subcircuit for sky130_fd_sc_hd__or3_1 abstract view
.subckt sky130_fd_sc_hd__or3_1 A B C VGND VNB VPB VPWR X
.ends

* Black-box entry subcircuit for sky130_fd_sc_hd__diode_2 abstract view
.subckt sky130_fd_sc_hd__diode_2 DIODE VGND VNB VPB VPWR
.ends

* Black-box entry subcircuit for sky130_fd_sc_hd__dlxtp_1 abstract view
.subckt sky130_fd_sc_hd__dlxtp_1 D GATE VGND VNB VPB VPWR Q
.ends

* Black-box entry subcircuit for sky130_fd_sc_hd__nor2_2 abstract view
.subckt sky130_fd_sc_hd__nor2_2 A B VGND VNB VPB VPWR Y
.ends

* Black-box entry subcircuit for sky130_fd_sc_hd__o211ai_1 abstract view
.subckt sky130_fd_sc_hd__o211ai_1 A1 A2 B1 C1 VGND VNB VPB VPWR Y
.ends

* Black-box entry subcircuit for sky130_fd_sc_hd__a41oi_1 abstract view
.subckt sky130_fd_sc_hd__a41oi_1 A1 A2 A3 A4 B1 VGND VNB VPB VPWR Y
.ends

* Black-box entry subcircuit for sky130_fd_sc_hd__or2_1 abstract view
.subckt sky130_fd_sc_hd__or2_1 A B VGND VNB VPB VPWR X
.ends

* Black-box entry subcircuit for sky130_fd_sc_hd__a21bo_1 abstract view
.subckt sky130_fd_sc_hd__a21bo_1 A1 A2 B1_N VGND VNB VPB VPWR X
.ends

* Black-box entry subcircuit for sky130_fd_sc_hd__dfxtp_2 abstract view
.subckt sky130_fd_sc_hd__dfxtp_2 CLK D VGND VNB VPB VPWR Q
.ends

* Black-box entry subcircuit for sky130_fd_sc_hd__clkbuf_4 abstract view
.subckt sky130_fd_sc_hd__clkbuf_4 A VGND VNB VPB VPWR X
.ends

* Black-box entry subcircuit for sky130_fd_sc_hd__a311oi_2 abstract view
.subckt sky130_fd_sc_hd__a311oi_2 A1 A2 A3 B1 C1 VGND VNB VPB VPWR Y
.ends

* Black-box entry subcircuit for sky130_fd_sc_hd__xor2_2 abstract view
.subckt sky130_fd_sc_hd__xor2_2 A B VGND VNB VPB VPWR X
.ends

* Black-box entry subcircuit for sky130_fd_sc_hd__a31o_1 abstract view
.subckt sky130_fd_sc_hd__a31o_1 A1 A2 A3 B1 VGND VNB VPB VPWR X
.ends

* Black-box entry subcircuit for sky130_fd_sc_hd__or2b_1 abstract view
.subckt sky130_fd_sc_hd__or2b_1 A B_N VGND VNB VPB VPWR X
.ends

* Black-box entry subcircuit for sky130_fd_sc_hd__and4_2 abstract view
.subckt sky130_fd_sc_hd__and4_2 A B C D VGND VNB VPB VPWR X
.ends

* Black-box entry subcircuit for sky130_fd_sc_hd__o22a_1 abstract view
.subckt sky130_fd_sc_hd__o22a_1 A1 A2 B1 B2 VGND VNB VPB VPWR X
.ends

* Black-box entry subcircuit for sky130_fd_sc_hd__a22o_2 abstract view
.subckt sky130_fd_sc_hd__a22o_2 A1 A2 B1 B2 VGND VNB VPB VPWR X
.ends

* Black-box entry subcircuit for sky130_fd_sc_hd__o21a_1 abstract view
.subckt sky130_fd_sc_hd__o21a_1 A1 A2 B1 VGND VNB VPB VPWR X
.ends

* Black-box entry subcircuit for sky130_fd_sc_hd__a221o_1 abstract view
.subckt sky130_fd_sc_hd__a221o_1 A1 A2 B1 B2 C1 VGND VNB VPB VPWR X
.ends

* Black-box entry subcircuit for sky130_fd_sc_hd__and2_1 abstract view
.subckt sky130_fd_sc_hd__and2_1 A B VGND VNB VPB VPWR X
.ends

* Black-box entry subcircuit for sky130_fd_sc_hd__or3b_1 abstract view
.subckt sky130_fd_sc_hd__or3b_1 A B C_N VGND VNB VPB VPWR X
.ends

* Black-box entry subcircuit for sky130_fd_sc_hd__xor2_1 abstract view
.subckt sky130_fd_sc_hd__xor2_1 A B VGND VNB VPB VPWR X
.ends

* Black-box entry subcircuit for sky130_fd_sc_hd__a311oi_1 abstract view
.subckt sky130_fd_sc_hd__a311oi_1 A1 A2 A3 B1 C1 VGND VNB VPB VPWR Y
.ends

* Black-box entry subcircuit for sky130_fd_sc_hd__o21ai_1 abstract view
.subckt sky130_fd_sc_hd__o21ai_1 A1 A2 B1 VGND VNB VPB VPWR Y
.ends

* Black-box entry subcircuit for sky130_fd_sc_hd__a21o_1 abstract view
.subckt sky130_fd_sc_hd__a21o_1 A1 A2 B1 VGND VNB VPB VPWR X
.ends

* Black-box entry subcircuit for sky130_fd_sc_hd__o311a_1 abstract view
.subckt sky130_fd_sc_hd__o311a_1 A1 A2 A3 B1 C1 VGND VNB VPB VPWR X
.ends

* Black-box entry subcircuit for sky130_fd_sc_hd__a32o_4 abstract view
.subckt sky130_fd_sc_hd__a32o_4 A1 A2 A3 B1 B2 VGND VNB VPB VPWR X
.ends

* Black-box entry subcircuit for sky130_fd_sc_hd__nand3_1 abstract view
.subckt sky130_fd_sc_hd__nand3_1 A B C VGND VNB VPB VPWR Y
.ends

* Black-box entry subcircuit for sky130_fd_sc_hd__or3b_4 abstract view
.subckt sky130_fd_sc_hd__or3b_4 A B C_N VGND VNB VPB VPWR X
.ends

* Black-box entry subcircuit for sky130_fd_sc_hd__a22oi_1 abstract view
.subckt sky130_fd_sc_hd__a22oi_1 A1 A2 B1 B2 VGND VNB VPB VPWR Y
.ends

* Black-box entry subcircuit for sky130_fd_sc_hd__o31ai_4 abstract view
.subckt sky130_fd_sc_hd__o31ai_4 A1 A2 A3 B1 VGND VNB VPB VPWR Y
.ends

* Black-box entry subcircuit for sky130_fd_sc_hd__a2bb2o_1 abstract view
.subckt sky130_fd_sc_hd__a2bb2o_1 A1_N A2_N B1 B2 VGND VNB VPB VPWR X
.ends

* Black-box entry subcircuit for sky130_fd_sc_hd__o221ai_4 abstract view
.subckt sky130_fd_sc_hd__o221ai_4 A1 A2 B1 B2 C1 VGND VNB VPB VPWR Y
.ends

* Black-box entry subcircuit for sky130_fd_sc_hd__o31a_1 abstract view
.subckt sky130_fd_sc_hd__o31a_1 A1 A2 A3 B1 VGND VNB VPB VPWR X
.ends

* Black-box entry subcircuit for sky130_fd_sc_hd__o211ai_4 abstract view
.subckt sky130_fd_sc_hd__o211ai_4 A1 A2 B1 C1 VGND VNB VPB VPWR Y
.ends

* Black-box entry subcircuit for sky130_fd_sc_hd__a21oi_2 abstract view
.subckt sky130_fd_sc_hd__a21oi_2 A1 A2 B1 VGND VNB VPB VPWR Y
.ends

* Black-box entry subcircuit for sky130_fd_sc_hd__a211o_1 abstract view
.subckt sky130_fd_sc_hd__a211o_1 A1 A2 B1 C1 VGND VNB VPB VPWR X
.ends

* Black-box entry subcircuit for sky130_fd_sc_hd__a211oi_1 abstract view
.subckt sky130_fd_sc_hd__a211oi_1 A1 A2 B1 C1 VGND VNB VPB VPWR Y
.ends

* Black-box entry subcircuit for sky130_fd_sc_hd__and4_1 abstract view
.subckt sky130_fd_sc_hd__and4_1 A B C D VGND VNB VPB VPWR X
.ends

* Black-box entry subcircuit for sky130_fd_sc_hd__and3_1 abstract view
.subckt sky130_fd_sc_hd__and3_1 A B C VGND VNB VPB VPWR X
.ends

* Black-box entry subcircuit for sky130_fd_sc_hd__and4bb_2 abstract view
.subckt sky130_fd_sc_hd__and4bb_2 A_N B_N C D VGND VNB VPB VPWR X
.ends

* Black-box entry subcircuit for sky130_fd_sc_hd__o31ai_1 abstract view
.subckt sky130_fd_sc_hd__o31ai_1 A1 A2 A3 B1 VGND VNB VPB VPWR Y
.ends

* Black-box entry subcircuit for sky130_fd_sc_hd__a41o_1 abstract view
.subckt sky130_fd_sc_hd__a41o_1 A1 A2 A3 A4 B1 VGND VNB VPB VPWR X
.ends

* Black-box entry subcircuit for sky130_fd_sc_hd__a221o_4 abstract view
.subckt sky130_fd_sc_hd__a221o_4 A1 A2 B1 B2 C1 VGND VNB VPB VPWR X
.ends

* Black-box entry subcircuit for sky130_fd_sc_hd__or3_2 abstract view
.subckt sky130_fd_sc_hd__or3_2 A B C VGND VNB VPB VPWR X
.ends

* Black-box entry subcircuit for sky130_fd_sc_hd__a21oi_1 abstract view
.subckt sky130_fd_sc_hd__a21oi_1 A1 A2 B1 VGND VNB VPB VPWR Y
.ends

* Black-box entry subcircuit for sky130_fd_sc_hd__and3b_1 abstract view
.subckt sky130_fd_sc_hd__and3b_1 A_N B C VGND VNB VPB VPWR X
.ends

* Black-box entry subcircuit for sky130_fd_sc_hd__or4_2 abstract view
.subckt sky130_fd_sc_hd__or4_2 A B C D VGND VNB VPB VPWR X
.ends

* Black-box entry subcircuit for sky130_fd_sc_hd__ebufn_1 abstract view
.subckt sky130_fd_sc_hd__ebufn_1 A TE_B VGND VNB VPB VPWR Z
.ends

* Black-box entry subcircuit for sky130_fd_sc_hd__inv_2 abstract view
.subckt sky130_fd_sc_hd__inv_2 A VGND VNB VPB VPWR Y
.ends

* Black-box entry subcircuit for sky130_fd_sc_hd__nand2_2 abstract view
.subckt sky130_fd_sc_hd__nand2_2 A B VGND VNB VPB VPWR Y
.ends

* Black-box entry subcircuit for sky130_fd_sc_hd__o211a_1 abstract view
.subckt sky130_fd_sc_hd__o211a_1 A1 A2 B1 C1 VGND VNB VPB VPWR X
.ends

* Black-box entry subcircuit for sky130_fd_sc_hd__o21ai_2 abstract view
.subckt sky130_fd_sc_hd__o21ai_2 A1 A2 B1 VGND VNB VPB VPWR Y
.ends

* Black-box entry subcircuit for sky130_fd_sc_hd__or2_2 abstract view
.subckt sky130_fd_sc_hd__or2_2 A B VGND VNB VPB VPWR X
.ends

* Black-box entry subcircuit for sky130_fd_sc_hd__xnor2_1 abstract view
.subckt sky130_fd_sc_hd__xnor2_1 A B VGND VNB VPB VPWR Y
.ends

* Black-box entry subcircuit for sky130_fd_sc_hd__o31ai_2 abstract view
.subckt sky130_fd_sc_hd__o31ai_2 A1 A2 A3 B1 VGND VNB VPB VPWR Y
.ends

* Black-box entry subcircuit for sky130_fd_sc_hd__a2bb2oi_1 abstract view
.subckt sky130_fd_sc_hd__a2bb2oi_1 A1_N A2_N B1 B2 VGND VNB VPB VPWR Y
.ends

* Black-box entry subcircuit for sky130_fd_sc_hd__nand3b_1 abstract view
.subckt sky130_fd_sc_hd__nand3b_1 A_N B C VGND VNB VPB VPWR Y
.ends

* Black-box entry subcircuit for sky130_fd_sc_hd__and4b_4 abstract view
.subckt sky130_fd_sc_hd__and4b_4 A_N B C D VGND VNB VPB VPWR X
.ends

* Black-box entry subcircuit for sky130_fd_sc_hd__buf_4 abstract view
.subckt sky130_fd_sc_hd__buf_4 A VGND VNB VPB VPWR X
.ends

* Black-box entry subcircuit for sky130_fd_sc_hd__or4_1 abstract view
.subckt sky130_fd_sc_hd__or4_1 A B C D VGND VNB VPB VPWR X
.ends

* Black-box entry subcircuit for sky130_fd_sc_hd__a2111o_1 abstract view
.subckt sky130_fd_sc_hd__a2111o_1 A1 A2 B1 C1 D1 VGND VNB VPB VPWR X
.ends

* Black-box entry subcircuit for sky130_fd_sc_hd__a31o_2 abstract view
.subckt sky130_fd_sc_hd__a31o_2 A1 A2 A3 B1 VGND VNB VPB VPWR X
.ends

* Black-box entry subcircuit for sky130_fd_sc_hd__a31oi_1 abstract view
.subckt sky130_fd_sc_hd__a31oi_1 A1 A2 A3 B1 VGND VNB VPB VPWR Y
.ends

* Black-box entry subcircuit for sky130_fd_sc_hd__dfxtp_4 abstract view
.subckt sky130_fd_sc_hd__dfxtp_4 CLK D VGND VNB VPB VPWR Q
.ends

* Black-box entry subcircuit for sky130_fd_sc_hd__a32o_2 abstract view
.subckt sky130_fd_sc_hd__a32o_2 A1 A2 A3 B1 B2 VGND VNB VPB VPWR X
.ends

* Black-box entry subcircuit for sky130_fd_sc_hd__o21bai_2 abstract view
.subckt sky130_fd_sc_hd__o21bai_2 A1 A2 B1_N VGND VNB VPB VPWR Y
.ends

* Black-box entry subcircuit for sky130_fd_sc_hd__nor4_1 abstract view
.subckt sky130_fd_sc_hd__nor4_1 A B C D VGND VNB VPB VPWR Y
.ends

* Black-box entry subcircuit for sky130_fd_sc_hd__nand4_2 abstract view
.subckt sky130_fd_sc_hd__nand4_2 A B C D VGND VNB VPB VPWR Y
.ends

* Black-box entry subcircuit for sky130_fd_sc_hd__o2bb2ai_1 abstract view
.subckt sky130_fd_sc_hd__o2bb2ai_1 A1_N A2_N B1 B2 VGND VNB VPB VPWR Y
.ends

* Black-box entry subcircuit for sky130_fd_sc_hd__and4bb_4 abstract view
.subckt sky130_fd_sc_hd__and4bb_4 A_N B_N C D VGND VNB VPB VPWR X
.ends

* Black-box entry subcircuit for sky130_fd_sc_hd__nand4b_4 abstract view
.subckt sky130_fd_sc_hd__nand4b_4 A_N B C D VGND VNB VPB VPWR Y
.ends

* Black-box entry subcircuit for sky130_fd_sc_hd__nand4_1 abstract view
.subckt sky130_fd_sc_hd__nand4_1 A B C D VGND VNB VPB VPWR Y
.ends

* Black-box entry subcircuit for sky130_fd_sc_hd__a22oi_4 abstract view
.subckt sky130_fd_sc_hd__a22oi_4 A1 A2 B1 B2 VGND VNB VPB VPWR Y
.ends

* Black-box entry subcircuit for sky130_fd_sc_hd__nand2_4 abstract view
.subckt sky130_fd_sc_hd__nand2_4 A B VGND VNB VPB VPWR Y
.ends

* Black-box entry subcircuit for sky130_fd_sc_hd__a31oi_4 abstract view
.subckt sky130_fd_sc_hd__a31oi_4 A1 A2 A3 B1 VGND VNB VPB VPWR Y
.ends

* Black-box entry subcircuit for sky130_fd_sc_hd__nand3_2 abstract view
.subckt sky130_fd_sc_hd__nand3_2 A B C VGND VNB VPB VPWR Y
.ends

* Black-box entry subcircuit for sky130_fd_sc_hd__or4bb_2 abstract view
.subckt sky130_fd_sc_hd__or4bb_2 A B C_N D_N VGND VNB VPB VPWR X
.ends

* Black-box entry subcircuit for sky130_fd_sc_hd__o311ai_4 abstract view
.subckt sky130_fd_sc_hd__o311ai_4 A1 A2 A3 B1 C1 VGND VNB VPB VPWR Y
.ends

* Black-box entry subcircuit for sky130_fd_sc_hd__o2bb2ai_4 abstract view
.subckt sky130_fd_sc_hd__o2bb2ai_4 A1_N A2_N B1 B2 VGND VNB VPB VPWR Y
.ends

* Black-box entry subcircuit for sky130_fd_sc_hd__o2bb2a_1 abstract view
.subckt sky130_fd_sc_hd__o2bb2a_1 A1_N A2_N B1 B2 VGND VNB VPB VPWR X
.ends

* Black-box entry subcircuit for sky130_fd_sc_hd__o2111ai_2 abstract view
.subckt sky130_fd_sc_hd__o2111ai_2 A1 A2 B1 C1 D1 VGND VNB VPB VPWR Y
.ends

* Black-box entry subcircuit for sky130_fd_sc_hd__a22oi_2 abstract view
.subckt sky130_fd_sc_hd__a22oi_2 A1 A2 B1 B2 VGND VNB VPB VPWR Y
.ends

* Black-box entry subcircuit for sky130_fd_sc_hd__a221o_2 abstract view
.subckt sky130_fd_sc_hd__a221o_2 A1 A2 B1 B2 C1 VGND VNB VPB VPWR X
.ends

* Black-box entry subcircuit for sky130_fd_sc_hd__o22ai_1 abstract view
.subckt sky130_fd_sc_hd__o22ai_1 A1 A2 B1 B2 VGND VNB VPB VPWR Y
.ends

* Black-box entry subcircuit for sky130_fd_sc_hd__o211ai_2 abstract view
.subckt sky130_fd_sc_hd__o211ai_2 A1 A2 B1 C1 VGND VNB VPB VPWR Y
.ends

* Black-box entry subcircuit for sky130_fd_sc_hd__nor3_2 abstract view
.subckt sky130_fd_sc_hd__nor3_2 A B C VGND VNB VPB VPWR Y
.ends

* Black-box entry subcircuit for sky130_fd_sc_hd__o32a_1 abstract view
.subckt sky130_fd_sc_hd__o32a_1 A1 A2 A3 B1 B2 VGND VNB VPB VPWR X
.ends

* Black-box entry subcircuit for sky130_fd_sc_hd__o221ai_1 abstract view
.subckt sky130_fd_sc_hd__o221ai_1 A1 A2 B1 B2 C1 VGND VNB VPB VPWR Y
.ends

* Black-box entry subcircuit for sky130_fd_sc_hd__o22ai_2 abstract view
.subckt sky130_fd_sc_hd__o22ai_2 A1 A2 B1 B2 VGND VNB VPB VPWR Y
.ends

* Black-box entry subcircuit for sky130_fd_sc_hd__a21boi_1 abstract view
.subckt sky130_fd_sc_hd__a21boi_1 A1 A2 B1_N VGND VNB VPB VPWR Y
.ends

* Black-box entry subcircuit for sky130_fd_sc_hd__o221a_1 abstract view
.subckt sky130_fd_sc_hd__o221a_1 A1 A2 B1 B2 C1 VGND VNB VPB VPWR X
.ends

* Black-box entry subcircuit for sky130_fd_sc_hd__and4bb_1 abstract view
.subckt sky130_fd_sc_hd__and4bb_1 A_N B_N C D VGND VNB VPB VPWR X
.ends

* Black-box entry subcircuit for sky130_fd_sc_hd__or4bb_4 abstract view
.subckt sky130_fd_sc_hd__or4bb_4 A B C_N D_N VGND VNB VPB VPWR X
.ends

.subckt vahid6i D_R_data[0] D_R_data[10] D_R_data[11] D_R_data[12] D_R_data[13] D_R_data[14]
+ D_R_data[15] D_R_data[1] D_R_data[2] D_R_data[3] D_R_data[4] D_R_data[5] D_R_data[6]
+ D_R_data[7] D_R_data[8] D_R_data[9] D_W_data[0] D_W_data[10] D_W_data[11] D_W_data[12]
+ D_W_data[13] D_W_data[14] D_W_data[15] D_W_data[1] D_W_data[2] D_W_data[3] D_W_data[4]
+ D_W_data[5] D_W_data[6] D_W_data[7] D_W_data[8] D_W_data[9] D_addr[0] D_addr[1]
+ D_addr[2] D_addr[3] D_addr[4] D_addr[5] D_addr[6] D_addr[7] D_rd D_wr I_addr[0]
+ I_addr[10] I_addr[11] I_addr[12] I_addr[13] I_addr[14] I_addr[15] I_addr[1] I_addr[2]
+ I_addr[3] I_addr[4] I_addr[5] I_addr[6] I_addr[7] I_addr[8] I_addr[9] I_data[0]
+ I_data[10] I_data[11] I_data[12] I_data[13] I_data[14] I_data[15] I_data[1] I_data[2]
+ I_data[3] I_data[4] I_data[5] I_data[6] I_data[7] I_data[8] I_data[9] I_rd VGND
+ VPWR clock led_clock leds[0] leds[1] leds[2] leds[3] reset
XTAP_177 VGND VPWR sky130_fd_sc_hd__tapvpwrvgnd_1
XTAP_188 VGND VPWR sky130_fd_sc_hd__tapvpwrvgnd_1
XTAP_199 VGND VPWR sky130_fd_sc_hd__tapvpwrvgnd_1
XFILLER_82_501 VGND VGND VPWR VPWR sky130_fd_sc_hd__decap_4
XFILLER_27_406 VGND VGND VPWR VPWR sky130_fd_sc_hd__decap_3
X_3155_ uc_0._20_\[9\] _0724_ _0562_ VGND VGND VPWR VPWR _1383_ sky130_fd_sc_hd__mux2_1
X_3086_ po_0.regf_0.rf\[3\]\[13\] _0858_ _1331_ VGND VGND VPWR VPWR _1347_ sky130_fd_sc_hd__mux2_1
X_2106_ po_0._1_\[8\] _0637_ VGND VGND VPWR VPWR _0644_ sky130_fd_sc_hd__and2b_1
X_2037_ _0581_ _0582_ VGND VGND VPWR VPWR _0583_ sky130_fd_sc_hd__nor2_1
XFILLER_35_461 VGND VGND VPWR VPWR sky130_ef_sc_hd__decap_12
XFILLER_52_29 VGND VGND VPWR VPWR sky130_ef_sc_hd__decap_12
XFILLER_10_306 VGND VGND VPWR VPWR sky130_fd_sc_hd__fill_2
XFILLER_50_475 VGND VGND VPWR VPWR sky130_fd_sc_hd__fill_1
X_2939_ _1171_ _1247_ _1250_ _1251_ _1252_ VGND VGND VPWR VPWR _1253_ sky130_fd_sc_hd__a32o_1
XFILLER_77_15 VGND VGND VPWR VPWR sky130_ef_sc_hd__decap_12
XFILLER_77_306 VGND VGND VPWR VPWR sky130_ef_sc_hd__decap_12
XFILLER_85_383 VGND VGND VPWR VPWR sky130_fd_sc_hd__decap_8
XFILLER_45_225 VGND VGND VPWR VPWR sky130_ef_sc_hd__decap_12
XFILLER_26_450 VGND VGND VPWR VPWR sky130_ef_sc_hd__decap_12
XFILLER_26_85 VGND VGND VPWR VPWR sky130_ef_sc_hd__decap_12
XFILLER_68_306 VGND VGND VPWR VPWR sky130_fd_sc_hd__fill_2
XFILLER_64_501 VGND VGND VPWR VPWR sky130_fd_sc_hd__decap_4
XFILLER_67_81 VGND VGND VPWR VPWR sky130_ef_sc_hd__decap_12
XFILLER_36_203 VGND VGND VPWR VPWR sky130_fd_sc_hd__decap_8
X_2724_ po_0.regf_0.rf\[10\]\[7\] _0944_ _1086_ VGND VGND VPWR VPWR _1088_ sky130_fd_sc_hd__mux2_1
X_2655_ _1050_ VGND VGND VPWR VPWR _0151_ sky130_fd_sc_hd__clkbuf_1
X_1606_ _1422_ VGND VGND VPWR VPWR _1568_ sky130_fd_sc_hd__clkbuf_1
X_2586_ _1012_ VGND VGND VPWR VPWR _0120_ sky130_fd_sc_hd__clkbuf_1
Xfanout127 net133 VGND VGND VPWR VPWR net127 sky130_fd_sc_hd__dlymetal6s2s_1
Xfanout138 net139 VGND VGND VPWR VPWR net138 sky130_fd_sc_hd__dlymetal6s2s_1
Xfanout105 net106 VGND VGND VPWR VPWR net105 sky130_fd_sc_hd__clkbuf_2
Xfanout116 net118 VGND VGND VPWR VPWR net116 sky130_fd_sc_hd__clkbuf_2
Xfanout149 net183 VGND VGND VPWR VPWR net149 sky130_fd_sc_hd__clkbuf_2
X_3207_ net126 _0031_ VGND VGND VPWR VPWR po_0.regf_0.rf\[7\]\[15\] sky130_fd_sc_hd__dfxtp_1
X_3138_ po_0.regf_0.rq_addr\[1\] _0566_ _0563_ VGND VGND VPWR VPWR _1374_ sky130_fd_sc_hd__mux2_1
XFILLER_15_409 VGND VGND VPWR VPWR sky130_ef_sc_hd__decap_12
X_3069_ po_0.regf_0.rf\[3\]\[5\] _0772_ _1332_ VGND VGND VPWR VPWR _1338_ sky130_fd_sc_hd__mux2_1
XFILLER_63_39 VGND VGND VPWR VPWR sky130_ef_sc_hd__decap_12
XFILLER_6_129 VGND VGND VPWR VPWR sky130_fd_sc_hd__fill_1
XFILLER_12_65 VGND VGND VPWR VPWR sky130_ef_sc_hd__decap_12
XFILLER_2_302 VGND VGND VPWR VPWR sky130_fd_sc_hd__decap_6
XFILLER_77_169 VGND VGND VPWR VPWR sky130_fd_sc_hd__fill_1
XFILLER_37_73 VGND VGND VPWR VPWR sky130_fd_sc_hd__fill_1
XFILLER_73_386 VGND VGND VPWR VPWR sky130_fd_sc_hd__decap_6
XFILLER_14_431 VGND VGND VPWR VPWR sky130_ef_sc_hd__decap_12
XFILLER_26_280 VGND VGND VPWR VPWR sky130_fd_sc_hd__fill_1
X_2440_ po_0.regf_0.rf\[5\]\[14\] _0871_ _0908_ VGND VGND VPWR VPWR _0925_ sky130_fd_sc_hd__mux2_1
X_2371_ po_0.regf_0.w_addr\[2\] VGND VGND VPWR VPWR _0886_ sky130_fd_sc_hd__dlymetal6s2s_1
XFILLER_56_309 VGND VGND VPWR VPWR sky130_ef_sc_hd__decap_12
XFILLER_83_139 VGND VGND VPWR VPWR sky130_fd_sc_hd__decap_6
XFILLER_76_180 VGND VGND VPWR VPWR sky130_fd_sc_hd__fill_1
XFILLER_20_489 VGND VGND VPWR VPWR sky130_ef_sc_hd__decap_12
X_2707_ po_0.regf_0.w_addr\[2\] _0882_ po_0.regf_0.w_wr _0885_ VGND VGND VPWR VPWR
+ _1078_ sky130_fd_sc_hd__and4b_2
X_2638_ _1040_ VGND VGND VPWR VPWR _1041_ sky130_fd_sc_hd__buf_2
X_2569_ _1003_ VGND VGND VPWR VPWR _0112_ sky130_fd_sc_hd__clkbuf_1
XFILLER_59_169 VGND VGND VPWR VPWR sky130_fd_sc_hd__fill_2
XFILLER_74_139 VGND VGND VPWR VPWR sky130_fd_sc_hd__fill_1
XFILLER_74_27 VGND VGND VPWR VPWR sky130_fd_sc_hd__fill_1
XFILLER_11_489 VGND VGND VPWR VPWR sky130_fd_sc_hd__decap_8
XFILLER_11_478 VGND VGND VPWR VPWR sky130_fd_sc_hd__fill_2
XFILLER_78_445 VGND VGND VPWR VPWR sky130_ef_sc_hd__decap_12
XFILLER_78_489 VGND VGND VPWR VPWR sky130_ef_sc_hd__decap_12
XFILLER_58_180 VGND VGND VPWR VPWR sky130_fd_sc_hd__decap_8
XFILLER_58_191 VGND VGND VPWR VPWR sky130_fd_sc_hd__decap_4
XFILLER_0_57 VGND VGND VPWR VPWR sky130_fd_sc_hd__decap_8
XFILLER_73_194 VGND VGND VPWR VPWR sky130_ef_sc_hd__decap_12
XFILLER_61_367 VGND VGND VPWR VPWR sky130_ef_sc_hd__decap_12
XFILLER_64_93 VGND VGND VPWR VPWR sky130_fd_sc_hd__decap_3
X_1940_ _0423_ _0501_ VGND VGND VPWR VPWR _0502_ sky130_fd_sc_hd__and2b_1
X_1871_ po_0.regf_0.rf\[8\]\[2\] po_0.regf_0.rf\[9\]\[2\] po_0.regf_0.rf\[10\]\[2\]
+ po_0.regf_0.rf\[11\]\[2\] _0411_ _0412_ VGND VGND VPWR VPWR _0439_ sky130_fd_sc_hd__mux4_1
X_3541_ net180 _0325_ VGND VGND VPWR VPWR net59 sky130_fd_sc_hd__dfxtp_1
XFILLER_50_3 VGND VGND VPWR VPWR sky130_ef_sc_hd__decap_12
X_3472_ net168 _0256_ VGND VGND VPWR VPWR uc_0._00_ sky130_fd_sc_hd__dfxtp_1
X_2423_ _0908_ VGND VGND VPWR VPWR _0916_ sky130_fd_sc_hd__buf_2
X_2354_ _0870_ VGND VGND VPWR VPWR _0871_ sky130_fd_sc_hd__dlymetal6s2s_1
XFILLER_69_412 VGND VGND VPWR VPWR sky130_fd_sc_hd__decap_4
X_2285_ _0775_ po_0.alu_0._11_\[8\] _0706_ _0637_ VGND VGND VPWR VPWR _0808_ sky130_fd_sc_hd__a22o_1
XFILLER_37_331 VGND VGND VPWR VPWR sky130_fd_sc_hd__fill_2
XFILLER_37_386 VGND VGND VPWR VPWR sky130_fd_sc_hd__decap_6
XFILLER_60_29 VGND VGND VPWR VPWR sky130_ef_sc_hd__decap_12
XFILLER_69_27 VGND VGND VPWR VPWR sky130_ef_sc_hd__decap_12
XFILLER_85_37 VGND VGND VPWR VPWR sky130_ef_sc_hd__decap_12
XFILLER_70_153 VGND VGND VPWR VPWR sky130_ef_sc_hd__decap_12
XFILLER_11_220 VGND VGND VPWR VPWR sky130_fd_sc_hd__fill_1
XFILLER_34_85 VGND VGND VPWR VPWR sky130_ef_sc_hd__decap_12
XFILLER_70_197 VGND VGND VPWR VPWR sky130_ef_sc_hd__decap_12
XFILLER_11_297 VGND VGND VPWR VPWR sky130_fd_sc_hd__decap_4
XFILLER_3_441 VGND VGND VPWR VPWR sky130_fd_sc_hd__decap_6
XTAP_507 VGND VPWR sky130_fd_sc_hd__tapvpwrvgnd_1
XFILLER_3_485 VGND VGND VPWR VPWR sky130_ef_sc_hd__decap_12
XTAP_518 VGND VPWR sky130_fd_sc_hd__tapvpwrvgnd_1
XTAP_529 VGND VPWR sky130_fd_sc_hd__tapvpwrvgnd_1
XFILLER_78_253 VGND VGND VPWR VPWR sky130_fd_sc_hd__fill_1
XFILLER_78_297 VGND VGND VPWR VPWR sky130_fd_sc_hd__decap_8
X_2070_ _0612_ VGND VGND VPWR VPWR po_0.alu_0._10_\[4\] sky130_fd_sc_hd__clkbuf_1
XFILLER_81_429 VGND VGND VPWR VPWR sky130_ef_sc_hd__decap_12
XFILLER_46_161 VGND VGND VPWR VPWR sky130_ef_sc_hd__decap_12
XFILLER_75_92 VGND VGND VPWR VPWR sky130_fd_sc_hd__decap_3
XFILLER_34_345 VGND VGND VPWR VPWR sky130_fd_sc_hd__fill_1
XFILLER_61_131 VGND VGND VPWR VPWR sky130_fd_sc_hd__fill_1
X_2972_ uc_0._01_ _1139_ _1144_ VGND VGND VPWR VPWR _1281_ sky130_fd_sc_hd__o21ba_1
X_1923_ po_0.regf_0.rf\[12\]\[7\] po_0.regf_0.rf\[13\]\[7\] po_0.regf_0.rf\[14\]\[7\]
+ po_0.regf_0.rf\[15\]\[7\] _0419_ _0420_ VGND VGND VPWR VPWR _0486_ sky130_fd_sc_hd__mux4_1
X_1854_ _0422_ VGND VGND VPWR VPWR _0423_ sky130_fd_sc_hd__buf_2
X_1785_ po_0.regf_0.rf\[0\]\[11\] po_0.regf_0.rf\[1\]\[11\] po_0.regf_0.rf\[2\]\[11\]
+ po_0.regf_0.rf\[3\]\[11\] _1488_ _1489_ VGND VGND VPWR VPWR _0360_ sky130_fd_sc_hd__mux4_1
X_3524_ net160 _0308_ VGND VGND VPWR VPWR po_0.regf_0.rp_rd sky130_fd_sc_hd__dfxtp_1
X_3455_ net153 _0015_ VGND VGND VPWR VPWR _0007_ sky130_fd_sc_hd__dfxtp_1
X_2406_ _0905_ VGND VGND VPWR VPWR _0047_ sky130_fd_sc_hd__clkbuf_1
X_3386_ net157 _0174_ VGND VGND VPWR VPWR po_0.regf_0.rf\[11\]\[14\] sky130_fd_sc_hd__dfxtp_1
XFILLER_84_212 VGND VGND VPWR VPWR sky130_ef_sc_hd__decap_12
X_2337_ _0853_ _0675_ VGND VGND VPWR VPWR _0855_ sky130_fd_sc_hd__nand2_1
X_2268_ net85 _0775_ _1401_ VGND VGND VPWR VPWR _0792_ sky130_fd_sc_hd__or3_1
XFILLER_44_109 VGND VGND VPWR VPWR sky130_fd_sc_hd__decap_8
XFILLER_25_323 VGND VGND VPWR VPWR sky130_fd_sc_hd__fill_1
X_2199_ _0711_ VGND VGND VPWR VPWR _0729_ sky130_fd_sc_hd__clkbuf_2
XFILLER_52_175 VGND VGND VPWR VPWR sky130_fd_sc_hd__decap_8
XFILLER_71_39 VGND VGND VPWR VPWR sky130_ef_sc_hd__decap_12
XFILLER_4_249 VGND VGND VPWR VPWR sky130_fd_sc_hd__decap_3
XFILLER_20_65 VGND VGND VPWR VPWR sky130_fd_sc_hd__fill_1
XFILLER_0_477 VGND VGND VPWR VPWR sky130_fd_sc_hd__fill_2
XFILLER_29_30 VGND VGND VPWR VPWR sky130_fd_sc_hd__decap_8
XFILLER_71_473 VGND VGND VPWR VPWR sky130_ef_sc_hd__decap_12
XFILLER_31_337 VGND VGND VPWR VPWR sky130_fd_sc_hd__fill_1
XANTENNA_5 net23 VGND VGND VPWR VPWR sky130_fd_sc_hd__diode_2
XTAP_315 VGND VPWR sky130_fd_sc_hd__tapvpwrvgnd_1
XTAP_304 VGND VPWR sky130_fd_sc_hd__tapvpwrvgnd_1
XTAP_348 VGND VPWR sky130_fd_sc_hd__tapvpwrvgnd_1
XTAP_337 VGND VPWR sky130_fd_sc_hd__tapvpwrvgnd_1
XTAP_326 VGND VPWR sky130_fd_sc_hd__tapvpwrvgnd_1
X_3240_ po_0.regf_0._3_\[0\] net89 VGND VGND VPWR VPWR net35 sky130_fd_sc_hd__dlxtp_1
XTAP_359 VGND VPWR sky130_fd_sc_hd__tapvpwrvgnd_1
X_3171_ _1391_ VGND VGND VPWR VPWR _0326_ sky130_fd_sc_hd__clkbuf_1
XFILLER_13_3 VGND VGND VPWR VPWR sky130_ef_sc_hd__decap_12
X_2122_ _0656_ _0657_ VGND VGND VPWR VPWR _0658_ sky130_fd_sc_hd__nor2_2
XFILLER_26_109 VGND VGND VPWR VPWR sky130_fd_sc_hd__fill_1
XFILLER_54_418 VGND VGND VPWR VPWR sky130_fd_sc_hd__fill_2
XFILLER_66_267 VGND VGND VPWR VPWR sky130_fd_sc_hd__decap_8
X_2053_ _0587_ _0589_ _0585_ _0586_ VGND VGND VPWR VPWR _0597_ sky130_fd_sc_hd__o211ai_1
X_2955_ _1237_ _1249_ _1256_ _1243_ net63 VGND VGND VPWR VPWR _1267_ sky130_fd_sc_hd__a41oi_1
X_1906_ _0469_ _0470_ _0399_ VGND VGND VPWR VPWR _0471_ sky130_fd_sc_hd__mux2_1
X_2886_ _1200_ _0566_ VGND VGND VPWR VPWR _1204_ sky130_fd_sc_hd__or2_1
X_1837_ _0406_ VGND VGND VPWR VPWR _0407_ sky130_fd_sc_hd__buf_2
X_1768_ po_0.regf_0.rf\[12\]\[9\] po_0.regf_0.rf\[13\]\[9\] po_0.regf_0.rf\[14\]\[9\]
+ po_0.regf_0.rf\[15\]\[9\] _1461_ _1463_ VGND VGND VPWR VPWR _0345_ sky130_fd_sc_hd__mux4_1
X_3507_ net143 _0291_ VGND VGND VPWR VPWR po_0.regf_0.rf\[2\]\[2\] sky130_fd_sc_hd__dfxtp_1
XFILLER_1_219 VGND VGND VPWR VPWR sky130_fd_sc_hd__fill_2
X_1699_ _1502_ _1484_ _1485_ VGND VGND VPWR VPWR _1503_ sky130_fd_sc_hd__a21bo_1
X_3438_ net167 _0226_ VGND VGND VPWR VPWR net69 sky130_fd_sc_hd__dfxtp_2
XTAP_871 VGND VPWR sky130_fd_sc_hd__tapvpwrvgnd_1
X_3369_ net124 _0157_ VGND VGND VPWR VPWR po_0.regf_0.rf\[12\]\[13\] sky130_fd_sc_hd__dfxtp_1
XTAP_860 VGND VPWR sky130_fd_sc_hd__tapvpwrvgnd_1
XTAP_893 VGND VPWR sky130_fd_sc_hd__tapvpwrvgnd_1
XTAP_882 VGND VPWR sky130_fd_sc_hd__tapvpwrvgnd_1
XFILLER_72_226 VGND VGND VPWR VPWR sky130_fd_sc_hd__decap_8
XFILLER_82_27 VGND VGND VPWR VPWR sky130_fd_sc_hd__fill_1
XFILLER_40_156 VGND VGND VPWR VPWR sky130_fd_sc_hd__decap_8
Xoutput42 net42 VGND VGND VPWR VPWR D_W_data[1] sky130_fd_sc_hd__buf_2
Xoutput75 net75 VGND VGND VPWR VPWR I_addr[8] sky130_fd_sc_hd__clkbuf_4
Xoutput53 net53 VGND VGND VPWR VPWR D_addr[2] sky130_fd_sc_hd__buf_2
Xoutput64 net64 VGND VGND VPWR VPWR I_addr[12] sky130_fd_sc_hd__buf_2
XFILLER_0_263 VGND VGND VPWR VPWR sky130_ef_sc_hd__decap_12
XFILLER_36_429 VGND VGND VPWR VPWR sky130_fd_sc_hd__fill_2
XFILLER_56_61 VGND VGND VPWR VPWR sky130_fd_sc_hd__decap_3
XFILLER_56_83 VGND VGND VPWR VPWR sky130_fd_sc_hd__fill_1
XFILLER_63_204 VGND VGND VPWR VPWR sky130_ef_sc_hd__decap_12
XFILLER_16_197 VGND VGND VPWR VPWR sky130_ef_sc_hd__decap_12
XPHY_170 VGND VGND VPWR VPWR sky130_fd_sc_hd__decap_3
X_2740_ po_0.regf_0.rf\[10\]\[15\] _0960_ _1078_ VGND VGND VPWR VPWR _1096_ sky130_fd_sc_hd__mux2_1
XFILLER_8_363 VGND VGND VPWR VPWR sky130_fd_sc_hd__fill_1
X_2671_ _1058_ VGND VGND VPWR VPWR _0159_ sky130_fd_sc_hd__clkbuf_1
X_1622_ _1431_ uc_0.bc_0._55_\[1\] uc_0.bc_0._55_\[0\] uc_0.bc_0._55_\[2\] uc_0.bc_0._55_\[3\]
+ VGND VGND VPWR VPWR _1432_ sky130_fd_sc_hd__a311oi_2
X_3223_ net126 _0047_ VGND VGND VPWR VPWR po_0.regf_0.rf\[6\]\[15\] sky130_fd_sc_hd__dfxtp_1
XTAP_178 VGND VPWR sky130_fd_sc_hd__tapvpwrvgnd_1
XTAP_189 VGND VPWR sky130_fd_sc_hd__tapvpwrvgnd_1
X_3154_ _1382_ VGND VGND VPWR VPWR _0318_ sky130_fd_sc_hd__clkbuf_1
X_3085_ _1346_ VGND VGND VPWR VPWR _0285_ sky130_fd_sc_hd__clkbuf_1
X_2105_ net50 po_0._1_\[9\] VGND VGND VPWR VPWR _0643_ sky130_fd_sc_hd__xor2_2
XFILLER_54_259 VGND VGND VPWR VPWR sky130_fd_sc_hd__fill_1
X_2036_ net86 po_0._1_\[1\] VGND VGND VPWR VPWR _0582_ sky130_fd_sc_hd__nor2_1
XFILLER_35_473 VGND VGND VPWR VPWR sky130_ef_sc_hd__decap_12
XFILLER_50_421 VGND VGND VPWR VPWR sky130_ef_sc_hd__decap_12
XFILLER_50_465 VGND VGND VPWR VPWR sky130_fd_sc_hd__fill_1
X_2938_ _1241_ net97 _1226_ _1246_ VGND VGND VPWR VPWR _1252_ sky130_fd_sc_hd__a31o_1
XFILLER_10_318 VGND VGND VPWR VPWR sky130_ef_sc_hd__decap_12
X_2869_ _1185_ _0557_ VGND VGND VPWR VPWR _1188_ sky130_fd_sc_hd__nor2_1
XFILLER_77_27 VGND VGND VPWR VPWR sky130_ef_sc_hd__decap_12