* NGSPICE file created from vahid6i.ext - technology: sky130A

* Black-box entry subcircuit for sky130_fd_sc_hd__decap_3 abstract view
.subckt sky130_fd_sc_hd__decap_3 VGND VNB VPB VPWR
.ends

* Black-box entry subcircuit for sky130_fd_sc_hd__fill_1 abstract view
.subckt sky130_fd_sc_hd__fill_1 VGND VNB VPB VPWR
.ends

* Black-box entry subcircuit for sky130_fd_sc_hd__decap_6 abstract view
.subckt sky130_fd_sc_hd__decap_6 VGND VNB VPB VPWR
.ends

* Black-box entry subcircuit for sky130_fd_sc_hd__dfxtp_1 abstract view
.subckt sky130_fd_sc_hd__dfxtp_1 CLK D VGND VNB VPB VPWR Q
.ends

* Black-box entry subcircuit for sky130_fd_sc_hd__tapvpwrvgnd_1 abstract view
.subckt sky130_fd_sc_hd__tapvpwrvgnd_1 VGND VPWR
.ends

* Black-box entry subcircuit for sky130_ef_sc_hd__decap_12 abstract view
.subckt sky130_ef_sc_hd__decap_12 VGND VNB VPB VPWR
.ends

* Black-box entry subcircuit for sky130_fd_sc_hd__fill_2 abstract view
.subckt sky130_fd_sc_hd__fill_2 VGND VNB VPB VPWR
.ends

* Black-box entry subcircuit for sky130_fd_sc_hd__decap_8 abstract view
.subckt sky130_fd_sc_hd__decap_8 VGND VNB VPB VPWR
.ends

* Black-box entry subcircuit for sky130_fd_sc_hd__o21bai_1 abstract view
.subckt sky130_fd_sc_hd__o21bai_1 A1 A2 B1_N VGND VNB VPB VPWR Y
.ends

* Black-box entry subcircuit for sky130_fd_sc_hd__clkbuf_4 abstract view
.subckt sky130_fd_sc_hd__clkbuf_4 A VGND VNB VPB VPWR X
.ends

* Black-box entry subcircuit for sky130_fd_sc_hd__or2_1 abstract view
.subckt sky130_fd_sc_hd__or2_1 A B VGND VNB VPB VPWR X
.ends

* Black-box entry subcircuit for sky130_fd_sc_hd__clkbuf_1 abstract view
.subckt sky130_fd_sc_hd__clkbuf_1 A VGND VNB VPB VPWR X
.ends

* Black-box entry subcircuit for sky130_fd_sc_hd__dlymetal6s2s_1 abstract view
.subckt sky130_fd_sc_hd__dlymetal6s2s_1 A VGND VNB VPB VPWR X
.ends

* Black-box entry subcircuit for sky130_fd_sc_hd__buf_2 abstract view
.subckt sky130_fd_sc_hd__buf_2 A VGND VNB VPB VPWR X
.ends

* Black-box entry subcircuit for sky130_fd_sc_hd__mux2_1 abstract view
.subckt sky130_fd_sc_hd__mux2_1 A0 A1 S VGND VNB VPB VPWR X
.ends

* Black-box entry subcircuit for sky130_fd_sc_hd__decap_4 abstract view
.subckt sky130_fd_sc_hd__decap_4 VGND VNB VPB VPWR
.ends

* Black-box entry subcircuit for sky130_fd_sc_hd__or3_1 abstract view
.subckt sky130_fd_sc_hd__or3_1 A B C VGND VNB VPB VPWR X
.ends

* Black-box entry subcircuit for sky130_fd_sc_hd__a22oi_1 abstract view
.subckt sky130_fd_sc_hd__a22oi_1 A1 A2 B1 B2 VGND VNB VPB VPWR Y
.ends

* Black-box entry subcircuit for sky130_fd_sc_hd__a21bo_1 abstract view
.subckt sky130_fd_sc_hd__a21bo_1 A1 A2 B1_N VGND VNB VPB VPWR X
.ends

* Black-box entry subcircuit for sky130_fd_sc_hd__clkbuf_2 abstract view
.subckt sky130_fd_sc_hd__clkbuf_2 A VGND VNB VPB VPWR X
.ends

* Black-box entry subcircuit for sky130_fd_sc_hd__a31o_1 abstract view
.subckt sky130_fd_sc_hd__a31o_1 A1 A2 A3 B1 VGND VNB VPB VPWR X
.ends

* Black-box entry subcircuit for sky130_fd_sc_hd__mux4_1 abstract view
.subckt sky130_fd_sc_hd__mux4_1 A0 A1 A2 A3 S0 S1 VGND VNB VPB VPWR X
.ends

* Black-box entry subcircuit for sky130_fd_sc_hd__or2b_1 abstract view
.subckt sky130_fd_sc_hd__or2b_1 A B_N VGND VNB VPB VPWR X
.ends

* Black-box entry subcircuit for sky130_fd_sc_hd__diode_2 abstract view
.subckt sky130_fd_sc_hd__diode_2 DIODE VGND VNB VPB VPWR
.ends

* Black-box entry subcircuit for sky130_fd_sc_hd__o21ai_1 abstract view
.subckt sky130_fd_sc_hd__o21ai_1 A1 A2 B1 VGND VNB VPB VPWR Y
.ends

* Black-box entry subcircuit for sky130_fd_sc_hd__dlxtp_1 abstract view
.subckt sky130_fd_sc_hd__dlxtp_1 D GATE VGND VNB VPB VPWR Q
.ends

* Black-box entry subcircuit for sky130_fd_sc_hd__and4b_2 abstract view
.subckt sky130_fd_sc_hd__and4b_2 A_N B C D VGND VNB VPB VPWR X
.ends

* Black-box entry subcircuit for sky130_fd_sc_hd__a221o_1 abstract view
.subckt sky130_fd_sc_hd__a221o_1 A1 A2 B1 B2 C1 VGND VNB VPB VPWR X
.ends

* Black-box entry subcircuit for sky130_fd_sc_hd__a21oi_1 abstract view
.subckt sky130_fd_sc_hd__a21oi_1 A1 A2 B1 VGND VNB VPB VPWR Y
.ends

* Black-box entry subcircuit for sky130_fd_sc_hd__and2b_1 abstract view
.subckt sky130_fd_sc_hd__and2b_1 A_N B VGND VNB VPB VPWR X
.ends

* Black-box entry subcircuit for sky130_fd_sc_hd__o22a_1 abstract view
.subckt sky130_fd_sc_hd__o22a_1 A1 A2 B1 B2 VGND VNB VPB VPWR X
.ends

* Black-box entry subcircuit for sky130_fd_sc_hd__nor3_2 abstract view
.subckt sky130_fd_sc_hd__nor3_2 A B C VGND VNB VPB VPWR Y
.ends

* Black-box entry subcircuit for sky130_fd_sc_hd__dlxtn_1 abstract view
.subckt sky130_fd_sc_hd__dlxtn_1 D GATE_N VGND VNB VPB VPWR Q
.ends

* Black-box entry subcircuit for sky130_fd_sc_hd__nand2_1 abstract view
.subckt sky130_fd_sc_hd__nand2_1 A B VGND VNB VPB VPWR Y
.ends

* Black-box entry subcircuit for sky130_fd_sc_hd__a311o_1 abstract view
.subckt sky130_fd_sc_hd__a311o_1 A1 A2 A3 B1 C1 VGND VNB VPB VPWR X
.ends

* Black-box entry subcircuit for sky130_fd_sc_hd__dlxtn_2 abstract view
.subckt sky130_fd_sc_hd__dlxtn_2 D GATE_N VGND VNB VPB VPWR Q
.ends

* Black-box entry subcircuit for sky130_fd_sc_hd__nor2_1 abstract view
.subckt sky130_fd_sc_hd__nor2_1 A B VGND VNB VPB VPWR Y
.ends

* Black-box entry subcircuit for sky130_fd_sc_hd__o211ai_1 abstract view
.subckt sky130_fd_sc_hd__o211ai_1 A1 A2 B1 C1 VGND VNB VPB VPWR Y
.ends

* Black-box entry subcircuit for sky130_fd_sc_hd__inv_2 abstract view
.subckt sky130_fd_sc_hd__inv_2 A VGND VNB VPB VPWR Y
.ends

* Black-box entry subcircuit for sky130_fd_sc_hd__nor4_1 abstract view
.subckt sky130_fd_sc_hd__nor4_1 A B C D VGND VNB VPB VPWR Y
.ends

* Black-box entry subcircuit for sky130_fd_sc_hd__o311a_1 abstract view
.subckt sky130_fd_sc_hd__o311a_1 A1 A2 A3 B1 C1 VGND VNB VPB VPWR X
.ends

* Black-box entry subcircuit for sky130_fd_sc_hd__nand2b_2 abstract view
.subckt sky130_fd_sc_hd__nand2b_2 A_N B VGND VNB VPB VPWR Y
.ends

* Black-box entry subcircuit for sky130_fd_sc_hd__o31a_2 abstract view
.subckt sky130_fd_sc_hd__o31a_2 A1 A2 A3 B1 VGND VNB VPB VPWR X
.ends

* Black-box entry subcircuit for sky130_fd_sc_hd__dfxtp_2 abstract view
.subckt sky130_fd_sc_hd__dfxtp_2 CLK D VGND VNB VPB VPWR Q
.ends

* Black-box entry subcircuit for sky130_fd_sc_hd__and2_1 abstract view
.subckt sky130_fd_sc_hd__and2_1 A B VGND VNB VPB VPWR X
.ends

* Black-box entry subcircuit for sky130_fd_sc_hd__xnor2_1 abstract view
.subckt sky130_fd_sc_hd__xnor2_1 A B VGND VNB VPB VPWR Y
.ends

* Black-box entry subcircuit for sky130_fd_sc_hd__nor2_2 abstract view
.subckt sky130_fd_sc_hd__nor2_2 A B VGND VNB VPB VPWR Y
.ends

* Black-box entry subcircuit for sky130_fd_sc_hd__nand3_1 abstract view
.subckt sky130_fd_sc_hd__nand3_1 A B C VGND VNB VPB VPWR Y
.ends

* Black-box entry subcircuit for sky130_fd_sc_hd__xor2_1 abstract view
.subckt sky130_fd_sc_hd__xor2_1 A B VGND VNB VPB VPWR X
.ends

* Black-box entry subcircuit for sky130_fd_sc_hd__o21a_1 abstract view
.subckt sky130_fd_sc_hd__o21a_1 A1 A2 B1 VGND VNB VPB VPWR X
.ends

* Black-box entry subcircuit for sky130_fd_sc_hd__a21o_1 abstract view
.subckt sky130_fd_sc_hd__a21o_1 A1 A2 B1 VGND VNB VPB VPWR X
.ends

* Black-box entry subcircuit for sky130_fd_sc_hd__and3_2 abstract view
.subckt sky130_fd_sc_hd__and3_2 A B C VGND VNB VPB VPWR X
.ends

* Black-box entry subcircuit for sky130_fd_sc_hd__nand4_1 abstract view
.subckt sky130_fd_sc_hd__nand4_1 A B C D VGND VNB VPB VPWR Y
.ends

* Black-box entry subcircuit for sky130_fd_sc_hd__o32ai_4 abstract view
.subckt sky130_fd_sc_hd__o32ai_4 A1 A2 A3 B1 B2 VGND VNB VPB VPWR Y
.ends

* Black-box entry subcircuit for sky130_fd_sc_hd__a31oi_2 abstract view
.subckt sky130_fd_sc_hd__a31oi_2 A1 A2 A3 B1 VGND VNB VPB VPWR Y
.ends

* Black-box entry subcircuit for sky130_fd_sc_hd__or3b_1 abstract view
.subckt sky130_fd_sc_hd__or3b_1 A B C_N VGND VNB VPB VPWR X
.ends

* Black-box entry subcircuit for sky130_fd_sc_hd__and4b_1 abstract view
.subckt sky130_fd_sc_hd__and4b_1 A_N B C D VGND VNB VPB VPWR X
.ends

* Black-box entry subcircuit for sky130_fd_sc_hd__or3b_4 abstract view
.subckt sky130_fd_sc_hd__or3b_4 A B C_N VGND VNB VPB VPWR X
.ends

* Black-box entry subcircuit for sky130_fd_sc_hd__a211o_1 abstract view
.subckt sky130_fd_sc_hd__a211o_1 A1 A2 B1 C1 VGND VNB VPB VPWR X
.ends

* Black-box entry subcircuit for sky130_fd_sc_hd__or4bb_1 abstract view
.subckt sky130_fd_sc_hd__or4bb_1 A B C_N D_N VGND VNB VPB VPWR X
.ends

* Black-box entry subcircuit for sky130_fd_sc_hd__a2111oi_1 abstract view
.subckt sky130_fd_sc_hd__a2111oi_1 A1 A2 B1 C1 D1 VGND VNB VPB VPWR Y
.ends

* Black-box entry subcircuit for sky130_fd_sc_hd__and4bb_2 abstract view
.subckt sky130_fd_sc_hd__and4bb_2 A_N B_N C D VGND VNB VPB VPWR X
.ends

* Black-box entry subcircuit for sky130_fd_sc_hd__nand3_4 abstract view
.subckt sky130_fd_sc_hd__nand3_4 A B C VGND VNB VPB VPWR Y
.ends

* Black-box entry subcircuit for sky130_fd_sc_hd__a41o_1 abstract view
.subckt sky130_fd_sc_hd__a41o_1 A1 A2 A3 A4 B1 VGND VNB VPB VPWR X
.ends

* Black-box entry subcircuit for sky130_fd_sc_hd__a211oi_2 abstract view
.subckt sky130_fd_sc_hd__a211oi_2 A1 A2 B1 C1 VGND VNB VPB VPWR Y
.ends

* Black-box entry subcircuit for sky130_fd_sc_hd__a221o_2 abstract view
.subckt sky130_fd_sc_hd__a221o_2 A1 A2 B1 B2 C1 VGND VNB VPB VPWR X
.ends

* Black-box entry subcircuit for sky130_fd_sc_hd__a221oi_1 abstract view
.subckt sky130_fd_sc_hd__a221oi_1 A1 A2 B1 B2 C1 VGND VNB VPB VPWR Y
.ends

* Black-box entry subcircuit for sky130_fd_sc_hd__o21ba_1 abstract view
.subckt sky130_fd_sc_hd__o21ba_1 A1 A2 B1_N VGND VNB VPB VPWR X
.ends

* Black-box entry subcircuit for sky130_fd_sc_hd__o221ai_2 abstract view
.subckt sky130_fd_sc_hd__o221ai_2 A1 A2 B1 B2 C1 VGND VNB VPB VPWR Y
.ends

* Black-box entry subcircuit for sky130_fd_sc_hd__a31o_2 abstract view
.subckt sky130_fd_sc_hd__a31o_2 A1 A2 A3 B1 VGND VNB VPB VPWR X
.ends

* Black-box entry subcircuit for sky130_fd_sc_hd__o221ai_1 abstract view
.subckt sky130_fd_sc_hd__o221ai_1 A1 A2 B1 B2 C1 VGND VNB VPB VPWR Y
.ends

* Black-box entry subcircuit for sky130_fd_sc_hd__and4_1 abstract view
.subckt sky130_fd_sc_hd__and4_1 A B C D VGND VNB VPB VPWR X
.ends

* Black-box entry subcircuit for sky130_fd_sc_hd__o21ai_2 abstract view
.subckt sky130_fd_sc_hd__o21ai_2 A1 A2 B1 VGND VNB VPB VPWR Y
.ends

* Black-box entry subcircuit for sky130_fd_sc_hd__nor4b_1 abstract view
.subckt sky130_fd_sc_hd__nor4b_1 A B C D_N VGND VNB VPB VPWR Y
.ends

* Black-box entry subcircuit for sky130_fd_sc_hd__o21ai_4 abstract view
.subckt sky130_fd_sc_hd__o21ai_4 A1 A2 B1 VGND VNB VPB VPWR Y
.ends

* Black-box entry subcircuit for sky130_fd_sc_hd__nor3_1 abstract view
.subckt sky130_fd_sc_hd__nor3_1 A B C VGND VNB VPB VPWR Y
.ends

* Black-box entry subcircuit for sky130_fd_sc_hd__a22oi_2 abstract view
.subckt sky130_fd_sc_hd__a22oi_2 A1 A2 B1 B2 VGND VNB VPB VPWR Y
.ends

* Black-box entry subcircuit for sky130_fd_sc_hd__a31oi_1 abstract view
.subckt sky130_fd_sc_hd__a31oi_1 A1 A2 A3 B1 VGND VNB VPB VPWR Y
.ends

* Black-box entry subcircuit for sky130_fd_sc_hd__a21oi_2 abstract view
.subckt sky130_fd_sc_hd__a21oi_2 A1 A2 B1 VGND VNB VPB VPWR Y
.ends

* Black-box entry subcircuit for sky130_fd_sc_hd__a2bb2o_1 abstract view
.subckt sky130_fd_sc_hd__a2bb2o_1 A1_N A2_N B1 B2 VGND VNB VPB VPWR X
.ends

* Black-box entry subcircuit for sky130_fd_sc_hd__ebufn_1 abstract view
.subckt sky130_fd_sc_hd__ebufn_1 A TE_B VGND VNB VPB VPWR Z
.ends

* Black-box entry subcircuit for sky130_fd_sc_hd__a22o_1 abstract view
.subckt sky130_fd_sc_hd__a22o_1 A1 A2 B1 B2 VGND VNB VPB VPWR X
.ends

* Black-box entry subcircuit for sky130_fd_sc_hd__nand4b_4 abstract view
.subckt sky130_fd_sc_hd__nand4b_4 A_N B C D VGND VNB VPB VPWR Y
.ends

* Black-box entry subcircuit for sky130_fd_sc_hd__a21boi_1 abstract view
.subckt sky130_fd_sc_hd__a21boi_1 A1 A2 B1_N VGND VNB VPB VPWR Y
.ends

* Black-box entry subcircuit for sky130_fd_sc_hd__o22ai_2 abstract view
.subckt sky130_fd_sc_hd__o22ai_2 A1 A2 B1 B2 VGND VNB VPB VPWR Y
.ends

* Black-box entry subcircuit for sky130_fd_sc_hd__o22ai_4 abstract view
.subckt sky130_fd_sc_hd__o22ai_4 A1 A2 B1 B2 VGND VNB VPB VPWR Y
.ends

* Black-box entry subcircuit for sky130_fd_sc_hd__or4_1 abstract view
.subckt sky130_fd_sc_hd__or4_1 A B C D VGND VNB VPB VPWR X
.ends

* Black-box entry subcircuit for sky130_fd_sc_hd__conb_1 abstract view
.subckt sky130_fd_sc_hd__conb_1 VGND VNB VPB VPWR HI LO
.ends

* Black-box entry subcircuit for sky130_fd_sc_hd__nand4_4 abstract view
.subckt sky130_fd_sc_hd__nand4_4 A B C D VGND VNB VPB VPWR Y
.ends

* Black-box entry subcircuit for sky130_fd_sc_hd__nand2_2 abstract view
.subckt sky130_fd_sc_hd__nand2_2 A B VGND VNB VPB VPWR Y
.ends

* Black-box entry subcircuit for sky130_fd_sc_hd__and2_2 abstract view
.subckt sky130_fd_sc_hd__and2_2 A B VGND VNB VPB VPWR X
.ends

* Black-box entry subcircuit for sky130_fd_sc_hd__xnor2_2 abstract view
.subckt sky130_fd_sc_hd__xnor2_2 A B VGND VNB VPB VPWR Y
.ends

* Black-box entry subcircuit for sky130_fd_sc_hd__a211oi_1 abstract view
.subckt sky130_fd_sc_hd__a211oi_1 A1 A2 B1 C1 VGND VNB VPB VPWR Y
.ends

* Black-box entry subcircuit for sky130_fd_sc_hd__nor2b_2 abstract view
.subckt sky130_fd_sc_hd__nor2b_2 A B_N VGND VNB VPB VPWR Y
.ends

* Black-box entry subcircuit for sky130_fd_sc_hd__nor3b_1 abstract view
.subckt sky130_fd_sc_hd__nor3b_1 A B C_N VGND VNB VPB VPWR Y
.ends

* Black-box entry subcircuit for sky130_fd_sc_hd__and3_1 abstract view
.subckt sky130_fd_sc_hd__and3_1 A B C VGND VNB VPB VPWR X
.ends

* Black-box entry subcircuit for sky130_fd_sc_hd__or3b_2 abstract view
.subckt sky130_fd_sc_hd__or3b_2 A B C_N VGND VNB VPB VPWR X
.ends

* Black-box entry subcircuit for sky130_fd_sc_hd__or4bb_4 abstract view
.subckt sky130_fd_sc_hd__or4bb_4 A B C_N D_N VGND VNB VPB VPWR X
.ends

* Black-box entry subcircuit for sky130_fd_sc_hd__a21oi_4 abstract view
.subckt sky130_fd_sc_hd__a21oi_4 A1 A2 B1 VGND VNB VPB VPWR Y
.ends

* Black-box entry subcircuit for sky130_fd_sc_hd__and4_2 abstract view
.subckt sky130_fd_sc_hd__and4_2 A B C D VGND VNB VPB VPWR X
.ends

* Black-box entry subcircuit for sky130_fd_sc_hd__o22ai_1 abstract view
.subckt sky130_fd_sc_hd__o22ai_1 A1 A2 B1 B2 VGND VNB VPB VPWR Y
.ends

* Black-box entry subcircuit for sky130_fd_sc_hd__o221a_1 abstract view
.subckt sky130_fd_sc_hd__o221a_1 A1 A2 B1 B2 C1 VGND VNB VPB VPWR X
.ends

* Black-box entry subcircuit for sky130_fd_sc_hd__and4bb_1 abstract view
.subckt sky130_fd_sc_hd__and4bb_1 A_N B_N C D VGND VNB VPB VPWR X
.ends

* Black-box entry subcircuit for sky130_fd_sc_hd__nand3b_1 abstract view
.subckt sky130_fd_sc_hd__nand3b_1 A_N B C VGND VNB VPB VPWR Y
.ends

* Black-box entry subcircuit for sky130_fd_sc_hd__a21o_2 abstract view
.subckt sky130_fd_sc_hd__a21o_2 A1 A2 B1 VGND VNB VPB VPWR X
.ends

* Black-box entry subcircuit for sky130_fd_sc_hd__or4b_1 abstract view
.subckt sky130_fd_sc_hd__or4b_1 A B C D_N VGND VNB VPB VPWR X
.ends

* Black-box entry subcircuit for sky130_fd_sc_hd__a211o_2 abstract view
.subckt sky130_fd_sc_hd__a211o_2 A1 A2 B1 C1 VGND VNB VPB VPWR X
.ends

* Black-box entry subcircuit for sky130_fd_sc_hd__o211a_1 abstract view
.subckt sky130_fd_sc_hd__o211a_1 A1 A2 B1 C1 VGND VNB VPB VPWR X
.ends

* Black-box entry subcircuit for sky130_fd_sc_hd__o2bb2a_1 abstract view
.subckt sky130_fd_sc_hd__o2bb2a_1 A1_N A2_N B1 B2 VGND VNB VPB VPWR X
.ends

* Black-box entry subcircuit for sky130_fd_sc_hd__o31ai_1 abstract view
.subckt sky130_fd_sc_hd__o31ai_1 A1 A2 A3 B1 VGND VNB VPB VPWR Y
.ends

* Black-box entry subcircuit for sky130_fd_sc_hd__a32o_1 abstract view
.subckt sky130_fd_sc_hd__a32o_1 A1 A2 A3 B1 B2 VGND VNB VPB VPWR X
.ends

.subckt vahid6i D_R_data[0] D_R_data[1] D_R_data[2] D_R_data[3] D_R_data[4] D_R_data[5]
+ D_R_data[6] D_R_data[7] D_W_data[0] D_W_data[1] D_W_data[2] D_W_data[3] D_W_data[4]
+ D_W_data[5] D_W_data[6] D_W_data[7] D_addr[0] D_addr[1] D_addr[2] D_addr[3] D_addr[4]
+ D_addr[5] D_addr[6] D_addr[7] D_rd D_wr I_addr[0] I_addr[1] I_addr[2] I_addr[3]
+ I_addr[4] I_addr[5] I_addr[6] I_addr[7] I_data[0] I_data[1] I_data[2] I_data[3]
+ I_data[4] I_data[5] I_data[6] I_data[7] I_rd VGND VPWR clock led_clock leds[0] leds[1]
+ leds[2] leds[3] reset
XFILLER_39_277 VGND VGND VPWR VPWR sky130_fd_sc_hd__decap_3
XFILLER_39_255 VGND VGND VPWR VPWR sky130_fd_sc_hd__fill_1
XFILLER_39_233 VGND VGND VPWR VPWR sky130_fd_sc_hd__decap_6
X_2037_ net99 _0183_ VGND VGND VPWR VPWR po_0.regf_0.w_addr\[3\] sky130_fd_sc_hd__dfxtp_1
XTAP_177 VGND VPWR sky130_fd_sc_hd__tapvpwrvgnd_1
XTAP_188 VGND VPWR sky130_fd_sc_hd__tapvpwrvgnd_1
XTAP_199 VGND VPWR sky130_fd_sc_hd__tapvpwrvgnd_1
XFILLER_52_29 VGND VGND VPWR VPWR sky130_ef_sc_hd__decap_12
XFILLER_22_100 VGND VGND VPWR VPWR sky130_fd_sc_hd__fill_2
XFILLER_22_111 VGND VGND VPWR VPWR sky130_fd_sc_hd__fill_1
XFILLER_45_269 VGND VGND VPWR VPWR sky130_fd_sc_hd__fill_1
XFILLER_45_225 VGND VGND VPWR VPWR sky130_fd_sc_hd__decap_8
XFILLER_45_214 VGND VGND VPWR VPWR sky130_fd_sc_hd__fill_1
XFILLER_26_41 VGND VGND VPWR VPWR sky130_fd_sc_hd__decap_8
XFILLER_42_62 VGND VGND VPWR VPWR sky130_fd_sc_hd__decap_3
XFILLER_13_155 VGND VGND VPWR VPWR sky130_ef_sc_hd__decap_12
XFILLER_13_199 VGND VGND VPWR VPWR sky130_ef_sc_hd__decap_12
XFILLER_5_343 VGND VGND VPWR VPWR sky130_fd_sc_hd__fill_1
XFILLER_36_236 VGND VGND VPWR VPWR sky130_ef_sc_hd__decap_12
X_1270_ _0760_ _0704_ _0498_ VGND VGND VPWR VPWR _0763_ sky130_fd_sc_hd__o21bai_1
XFILLER_44_280 VGND VGND VPWR VPWR sky130_ef_sc_hd__decap_12
X_0985_ _0004_ VGND VGND VPWR VPWR _0529_ sky130_fd_sc_hd__clkbuf_4
X_1606_ _0316_ _0317_ VGND VGND VPWR VPWR _0318_ sky130_fd_sc_hd__or2_1
XFILLER_59_317 VGND VGND VPWR VPWR sky130_ef_sc_hd__decap_12
X_1468_ _0212_ VGND VGND VPWR VPWR _0068_ sky130_fd_sc_hd__clkbuf_1
Xfanout105 net106 VGND VGND VPWR VPWR net105 sky130_fd_sc_hd__dlymetal6s2s_1
X_1399_ po_0.regf_0.w_addr\[0\] VGND VGND VPWR VPWR _0869_ sky130_fd_sc_hd__buf_2
X_1537_ _0252_ _0253_ _0250_ VGND VGND VPWR VPWR _0254_ sky130_fd_sc_hd__mux2_1
XFILLER_63_39 VGND VGND VPWR VPWR sky130_ef_sc_hd__decap_12
XFILLER_27_269 VGND VGND VPWR VPWR sky130_fd_sc_hd__decap_4
XFILLER_27_225 VGND VGND VPWR VPWR sky130_fd_sc_hd__decap_8
XFILLER_27_214 VGND VGND VPWR VPWR sky130_fd_sc_hd__fill_2
XFILLER_6_129 VGND VGND VPWR VPWR sky130_fd_sc_hd__decap_8
XFILLER_10_103 VGND VGND VPWR VPWR sky130_fd_sc_hd__decap_3
XFILLER_12_54 VGND VGND VPWR VPWR sky130_ef_sc_hd__decap_12
XFILLER_18_269 VGND VGND VPWR VPWR sky130_ef_sc_hd__decap_12
XFILLER_56_309 VGND VGND VPWR VPWR sky130_ef_sc_hd__decap_12
X_1253_ _0479_ _0450_ _0447_ VGND VGND VPWR VPWR _0747_ sky130_fd_sc_hd__or3_1
X_1322_ net6 _0741_ _0743_ po_0.muxf_0.rf_w_data\[5\] VGND VGND VPWR VPWR _0811_ sky130_fd_sc_hd__a22oi_1
XFILLER_49_361 VGND VGND VPWR VPWR sky130_ef_sc_hd__decap_12
X_1184_ uc_0.bc_0._14_\[4\] uc_0._21_\[4\] _0688_ VGND VGND VPWR VPWR _0693_ sky130_fd_sc_hd__mux2_1
X_0968_ _0509_ _0511_ _0512_ VGND VGND VPWR VPWR _0513_ sky130_fd_sc_hd__a21bo_1
X_0899_ _0455_ VGND VGND VPWR VPWR _0887_ sky130_fd_sc_hd__clkbuf_1
XFILLER_55_320 VGND VGND VPWR VPWR sky130_ef_sc_hd__decap_12
XFILLER_15_217 VGND VGND VPWR VPWR sky130_fd_sc_hd__decap_3
XFILLER_23_97 VGND VGND VPWR VPWR sky130_ef_sc_hd__decap_12
XFILLER_23_31 VGND VGND VPWR VPWR sky130_fd_sc_hd__fill_1
XFILLER_2_121 VGND VGND VPWR VPWR sky130_ef_sc_hd__decap_12
XFILLER_64_82 VGND VGND VPWR VPWR sky130_fd_sc_hd__fill_2
XFILLER_61_334 VGND VGND VPWR VPWR sky130_fd_sc_hd__fill_2
XFILLER_61_301 VGND VGND VPWR VPWR sky130_fd_sc_hd__decap_3
XFILLER_48_83 VGND VGND VPWR VPWR sky130_fd_sc_hd__fill_1
XFILLER_0_13 VGND VGND VPWR VPWR sky130_fd_sc_hd__fill_2
XFILLER_0_57 VGND VGND VPWR VPWR sky130_ef_sc_hd__decap_12
X_1871_ net82 _0049_ VGND VGND VPWR VPWR po_0.regf_0.rf\[9\]\[1\] sky130_fd_sc_hd__dfxtp_1
X_1940_ net64 net15 VGND VGND VPWR VPWR uc_0._21_\[6\] sky130_fd_sc_hd__dfxtp_1
XFILLER_9_55 VGND VGND VPWR VPWR sky130_fd_sc_hd__fill_1
XFILLER_14_250 VGND VGND VPWR VPWR sky130_fd_sc_hd__fill_2
XFILLER_50_3 VGND VGND VPWR VPWR sky130_ef_sc_hd__decap_12
X_1236_ _0731_ VGND VGND VPWR VPWR _0732_ sky130_fd_sc_hd__clkbuf_2
X_1305_ _0710_ po_0._1_\[2\] _0480_ _0792_ VGND VGND VPWR VPWR _0795_ sky130_fd_sc_hd__a31o_1
XFILLER_64_161 VGND VGND VPWR VPWR sky130_fd_sc_hd__decap_3
X_1098_ po_0.regf_0.rf\[0\]\[4\] po_0.regf_0.rf\[1\]\[4\] po_0.regf_0.rf\[2\]\[4\]
+ po_0.regf_0.rf\[3\]\[4\] _0597_ _0598_ VGND VGND VPWR VPWR _0631_ sky130_fd_sc_hd__mux4_1
X_1167_ uc_0._21_\[5\] VGND VGND VPWR VPWR _0683_ sky130_fd_sc_hd__clkbuf_2
XFILLER_12_209 VGND VGND VPWR VPWR sky130_fd_sc_hd__decap_8
XFILLER_60_29 VGND VGND VPWR VPWR sky130_ef_sc_hd__decap_12
XFILLER_62_109 VGND VGND VPWR VPWR sky130_ef_sc_hd__decap_12
XFILLER_55_194 VGND VGND VPWR VPWR sky130_fd_sc_hd__decap_3
XFILLER_34_74 VGND VGND VPWR VPWR sky130_fd_sc_hd__decap_8
XFILLER_11_220 VGND VGND VPWR VPWR sky130_fd_sc_hd__decap_4
XTAP_507 VGND VPWR sky130_fd_sc_hd__tapvpwrvgnd_1
XFILLER_50_95 VGND VGND VPWR VPWR sky130_fd_sc_hd__decap_4
XTAP_529 VGND VPWR sky130_fd_sc_hd__tapvpwrvgnd_1
XTAP_518 VGND VPWR sky130_fd_sc_hd__tapvpwrvgnd_1
XFILLER_38_128 VGND VGND VPWR VPWR sky130_ef_sc_hd__decap_12
XFILLER_34_312 VGND VGND VPWR VPWR sky130_fd_sc_hd__decap_4
X_1021_ po_0.regf_0.rf\[0\]\[5\] po_0.regf_0.rf\[1\]\[5\] po_0.regf_0.rf\[2\]\[5\]
+ po_0.regf_0.rf\[3\]\[5\] _0529_ _0530_ VGND VGND VPWR VPWR _0561_ sky130_fd_sc_hd__mux4_1
X_1854_ net106 _0036_ VGND VGND VPWR VPWR po_0.regf_0.rf\[7\]\[4\] sky130_fd_sc_hd__dfxtp_1
X_1923_ net71 _0101_ VGND VGND VPWR VPWR net42 sky130_fd_sc_hd__dfxtp_1
X_1785_ _0429_ VGND VGND VPWR VPWR _0168_ sky130_fd_sc_hd__clkbuf_1
XFILLER_37_161 VGND VGND VPWR VPWR sky130_fd_sc_hd__decap_6
XFILLER_25_301 VGND VGND VPWR VPWR sky130_fd_sc_hd__fill_1
X_1219_ po_0._1_\[3\] net51 VGND VGND VPWR VPWR _0717_ sky130_fd_sc_hd__or2b_1
XFILLER_52_197 VGND VGND VPWR VPWR sky130_fd_sc_hd__fill_2
XFILLER_20_65 VGND VGND VPWR VPWR sky130_fd_sc_hd__decap_8
XFILLER_28_150 VGND VGND VPWR VPWR sky130_ef_sc_hd__decap_12
XFILLER_61_72 VGND VGND VPWR VPWR sky130_ef_sc_hd__decap_12
XFILLER_31_337 VGND VGND VPWR VPWR sky130_fd_sc_hd__decap_8
XTAP_348 VGND VPWR sky130_fd_sc_hd__tapvpwrvgnd_1
XTAP_337 VGND VPWR sky130_fd_sc_hd__tapvpwrvgnd_1
XTAP_326 VGND VPWR sky130_fd_sc_hd__tapvpwrvgnd_1
XTAP_315 VGND VPWR sky130_fd_sc_hd__tapvpwrvgnd_1
XTAP_304 VGND VPWR sky130_fd_sc_hd__tapvpwrvgnd_1
XFILLER_3_293 VGND VGND VPWR VPWR sky130_ef_sc_hd__decap_12
XANTENNA_5 net57 VGND VGND VPWR VPWR sky130_fd_sc_hd__diode_2
X_1570_ uc_0._21_\[3\] net40 _0271_ VGND VGND VPWR VPWR _0284_ sky130_fd_sc_hd__o21ai_1
XTAP_359 VGND VPWR sky130_fd_sc_hd__tapvpwrvgnd_1
XFILLER_13_3 VGND VGND VPWR VPWR sky130_ef_sc_hd__decap_12
XFILLER_19_172 VGND VGND VPWR VPWR sky130_ef_sc_hd__decap_12
XFILLER_34_197 VGND VGND VPWR VPWR sky130_fd_sc_hd__decap_3
X_1004_ po_0.regf_0.rf\[0\]\[3\] po_0.regf_0.rf\[1\]\[3\] po_0.regf_0.rf\[2\]\[3\]
+ po_0.regf_0.rf\[3\]\[3\] _0529_ _0530_ VGND VGND VPWR VPWR _0546_ sky130_fd_sc_hd__mux4_1
XFILLER_22_304 VGND VGND VPWR VPWR sky130_fd_sc_hd__fill_1
X_1768_ _0421_ VGND VGND VPWR VPWR _0159_ sky130_fd_sc_hd__clkbuf_1
X_1906_ net105 _0084_ VGND VGND VPWR VPWR po_0.regf_0.rf\[13\]\[4\] sky130_fd_sc_hd__dfxtp_1
X_1837_ po_0.regf_0._3_\[3\] net52 VGND VGND VPWR VPWR net22 sky130_fd_sc_hd__dlxtp_1
XFILLER_57_212 VGND VGND VPWR VPWR sky130_ef_sc_hd__decap_12
X_1699_ po_0.regf_0.w_addr\[0\] _0752_ po_0.regf_0.w_wr _0194_ VGND VGND VPWR VPWR
+ _0383_ sky130_fd_sc_hd__and4b_2
XFILLER_1_219 VGND VGND VPWR VPWR sky130_fd_sc_hd__decap_4
XFILLER_40_101 VGND VGND VPWR VPWR sky130_fd_sc_hd__decap_6
XFILLER_40_134 VGND VGND VPWR VPWR sky130_fd_sc_hd__decap_6
XFILLER_31_42 VGND VGND VPWR VPWR sky130_ef_sc_hd__decap_12
XFILLER_15_65 VGND VGND VPWR VPWR sky130_fd_sc_hd__fill_1
XFILLER_21_381 VGND VGND VPWR VPWR sky130_fd_sc_hd__decap_4
Xoutput31 net31 VGND VGND VPWR VPWR D_addr[4] sky130_fd_sc_hd__buf_2
Xoutput42 net42 VGND VGND VPWR VPWR I_addr[5] sky130_fd_sc_hd__buf_2
Xoutput20 net20 VGND VGND VPWR VPWR D_W_data[1] sky130_fd_sc_hd__clkbuf_4
XFILLER_0_274 VGND VGND VPWR VPWR sky130_fd_sc_hd__decap_6
XFILLER_31_167 VGND VGND VPWR VPWR sky130_fd_sc_hd__fill_1
X_1622_ _0330_ _0331_ _0321_ _0319_ _0317_ VGND VGND VPWR VPWR _0333_ sky130_fd_sc_hd__a221o_1
XFILLER_8_363 VGND VGND VPWR VPWR sky130_fd_sc_hd__fill_1
X_1484_ _0221_ VGND VGND VPWR VPWR _0075_ sky130_fd_sc_hd__clkbuf_1
XTAP_167 VGND VPWR sky130_fd_sc_hd__tapvpwrvgnd_1
XTAP_156 VGND VPWR sky130_fd_sc_hd__tapvpwrvgnd_1
XTAP_134 VGND VPWR sky130_fd_sc_hd__tapvpwrvgnd_1
XTAP_145 VGND VPWR sky130_fd_sc_hd__tapvpwrvgnd_1
XTAP_178 VGND VPWR sky130_fd_sc_hd__tapvpwrvgnd_1
XTAP_189 VGND VPWR sky130_fd_sc_hd__tapvpwrvgnd_1
X_1553_ _0250_ _0255_ _0266_ VGND VGND VPWR VPWR _0268_ sky130_fd_sc_hd__a21oi_1
X_2036_ net100 _0182_ VGND VGND VPWR VPWR po_0.regf_0.w_addr\[2\] sky130_fd_sc_hd__dfxtp_1
XFILLER_22_123 VGND VGND VPWR VPWR sky130_ef_sc_hd__decap_12
XFILLER_53_281 VGND VGND VPWR VPWR sky130_fd_sc_hd__decap_3
XFILLER_13_167 VGND VGND VPWR VPWR sky130_fd_sc_hd__fill_1
XFILLER_42_85 VGND VGND VPWR VPWR sky130_fd_sc_hd__fill_2
XFILLER_5_300 VGND VGND VPWR VPWR sky130_ef_sc_hd__decap_12
XFILLER_9_138 VGND VGND VPWR VPWR sky130_fd_sc_hd__decap_3
XFILLER_36_248 VGND VGND VPWR VPWR sky130_fd_sc_hd__decap_4
XFILLER_44_292 VGND VGND VPWR VPWR sky130_ef_sc_hd__decap_12
X_0984_ _0514_ _0527_ VGND VGND VPWR VPWR _0528_ sky130_fd_sc_hd__and2b_1
X_1605_ _0292_ uc_0._21_\[4\] _0314_ _0315_ VGND VGND VPWR VPWR _0317_ sky130_fd_sc_hd__o22a_1
X_1536_ uc_0._01_ uc_0._00_ uc_0._02_ VGND VGND VPWR VPWR _0253_ sky130_fd_sc_hd__nor3_2
Xfanout106 net107 VGND VGND VPWR VPWR net106 sky130_fd_sc_hd__clkbuf_1
XFILLER_59_329 VGND VGND VPWR VPWR sky130_fd_sc_hd__decap_6
X_1467_ _0802_ po_0.regf_0.rf\[15\]\[4\] _0206_ VGND VGND VPWR VPWR _0212_ sky130_fd_sc_hd__mux2_1
X_1398_ _0860_ _0835_ _0868_ VGND VGND VPWR VPWR _0039_ sky130_fd_sc_hd__o21ai_1
XFILLER_50_251 VGND VGND VPWR VPWR sky130_fd_sc_hd__fill_1
XFILLER_35_281 VGND VGND VPWR VPWR sky130_ef_sc_hd__decap_12
X_2019_ _2019_/D net58 VGND VGND VPWR VPWR uc_0.bc_0._14_\[6\] sky130_fd_sc_hd__dlxtn_1
XFILLER_12_66 VGND VGND VPWR VPWR sky130_ef_sc_hd__decap_12
XFILLER_53_73 VGND VGND VPWR VPWR sky130_ef_sc_hd__decap_12
XFILLER_49_373 VGND VGND VPWR VPWR sky130_ef_sc_hd__decap_12
X_1321_ _0807_ _0809_ VGND VGND VPWR VPWR _0810_ sky130_fd_sc_hd__nand2_1
X_1252_ po_0.alu_0._10_\[0\] po_0.alu_0._11_\[0\] _0745_ VGND VGND VPWR VPWR _0746_
+ sky130_fd_sc_hd__mux2_1
XFILLER_64_365 VGND VGND VPWR VPWR sky130_fd_sc_hd__fill_2
XFILLER_64_321 VGND VGND VPWR VPWR sky130_fd_sc_hd__decap_8
XFILLER_24_229 VGND VGND VPWR VPWR sky130_fd_sc_hd__fill_1
XFILLER_17_281 VGND VGND VPWR VPWR sky130_ef_sc_hd__decap_12
X_1183_ _0692_ VGND VGND VPWR VPWR _2016_/D sky130_fd_sc_hd__clkbuf_1
X_0967_ _0007_ VGND VGND VPWR VPWR _0512_ sky130_fd_sc_hd__clkbuf_2
XFILLER_58_29 VGND VGND VPWR VPWR sky130_fd_sc_hd__decap_4
X_1519_ po_0.regf_0.rf\[12\]\[3\] _0847_ _0237_ VGND VGND VPWR VPWR _0241_ sky130_fd_sc_hd__mux2_1
X_0898_ _0449_ _0453_ VGND VGND VPWR VPWR _0455_ sky130_fd_sc_hd__or2b_1
XFILLER_55_332 VGND VGND VPWR VPWR sky130_fd_sc_hd__decap_4
XFILLER_15_229 VGND VGND VPWR VPWR sky130_ef_sc_hd__decap_12
XFILLER_2_133 VGND VGND VPWR VPWR sky130_fd_sc_hd__decap_6
XFILLER_46_365 VGND VGND VPWR VPWR sky130_ef_sc_hd__decap_12
XFILLER_0_25 VGND VGND VPWR VPWR sky130_fd_sc_hd__decap_3
XFILLER_0_69 VGND VGND VPWR VPWR sky130_ef_sc_hd__decap_12
X_1870_ net85 _0048_ VGND VGND VPWR VPWR po_0.regf_0.rf\[9\]\[0\] sky130_fd_sc_hd__dfxtp_1
XFILLER_14_273 VGND VGND VPWR VPWR sky130_fd_sc_hd__decap_6
XFILLER_43_3 VGND VGND VPWR VPWR sky130_fd_sc_hd__decap_4
XFILLER_56_118 VGND VGND VPWR VPWR sky130_fd_sc_hd__decap_3
XFILLER_49_181 VGND VGND VPWR VPWR sky130_fd_sc_hd__decap_6
XFILLER_37_321 VGND VGND VPWR VPWR sky130_fd_sc_hd__fill_1
X_1166_ _0682_ VGND VGND VPWR VPWR _1999_/D sky130_fd_sc_hd__clkbuf_1
X_1235_ _0729_ _0730_ VGND VGND VPWR VPWR _0731_ sky130_fd_sc_hd__or2_1
X_1304_ _0480_ _0710_ po_0._1_\[2\] _0792_ _0793_ VGND VGND VPWR VPWR _0794_ sky130_fd_sc_hd__a311o_1
XFILLER_60_19 VGND VGND VPWR VPWR sky130_fd_sc_hd__decap_8
X_1097_ _0600_ _0629_ VGND VGND VPWR VPWR _0630_ sky130_fd_sc_hd__and2b_1
X_1999_ _1999_/D net59 VGND VGND VPWR VPWR po_0.muxf_0.rf_w_data\[4\] sky130_fd_sc_hd__dlxtn_2
XFILLER_47_107 VGND VGND VPWR VPWR sky130_fd_sc_hd__decap_4
XFILLER_28_365 VGND VGND VPWR VPWR sky130_ef_sc_hd__decap_12
XFILLER_18_54 VGND VGND VPWR VPWR sky130_fd_sc_hd__decap_8
XFILLER_34_97 VGND VGND VPWR VPWR sky130_fd_sc_hd__decap_4
XFILLER_7_236 VGND VGND VPWR VPWR sky130_fd_sc_hd__decap_6
XTAP_519 VGND VPWR sky130_fd_sc_hd__tapvpwrvgnd_1
XTAP_508 VGND VPWR sky130_fd_sc_hd__tapvpwrvgnd_1
X_1020_ _0500_ _0559_ VGND VGND VPWR VPWR _0560_ sky130_fd_sc_hd__and2b_1
XFILLER_19_343 VGND VGND VPWR VPWR sky130_fd_sc_hd__fill_1
XFILLER_61_198 VGND VGND VPWR VPWR sky130_fd_sc_hd__fill_1
X_1922_ net72 _0100_ VGND VGND VPWR VPWR net41 sky130_fd_sc_hd__dfxtp_1
X_1853_ net88 _0035_ VGND VGND VPWR VPWR po_0.regf_0.rf\[7\]\[3\] sky130_fd_sc_hd__dfxtp_1
X_1784_ _0448_ _0464_ _0659_ VGND VGND VPWR VPWR _0429_ sky130_fd_sc_hd__mux2_1
X_1149_ _0672_ VGND VGND VPWR VPWR _0009_ sky130_fd_sc_hd__clkbuf_1
X_1218_ net50 po_0._1_\[4\] VGND VGND VPWR VPWR _0716_ sky130_fd_sc_hd__nor2_1
XFILLER_43_143 VGND VGND VPWR VPWR sky130_fd_sc_hd__fill_1
XFILLER_43_132 VGND VGND VPWR VPWR sky130_fd_sc_hd__fill_1
XFILLER_43_121 VGND VGND VPWR VPWR sky130_fd_sc_hd__fill_2
XFILLER_28_195 VGND VGND VPWR VPWR sky130_fd_sc_hd__fill_1
XFILLER_28_162 VGND VGND VPWR VPWR sky130_fd_sc_hd__decap_8
XFILLER_16_302 VGND VGND VPWR VPWR sky130_fd_sc_hd__decap_6
XFILLER_61_84 VGND VGND VPWR VPWR sky130_ef_sc_hd__decap_12
XFILLER_61_51 VGND VGND VPWR VPWR sky130_fd_sc_hd__decap_4
XTAP_349 VGND VPWR sky130_fd_sc_hd__tapvpwrvgnd_1
XTAP_338 VGND VPWR sky130_fd_sc_hd__tapvpwrvgnd_1
XTAP_327 VGND VPWR sky130_fd_sc_hd__tapvpwrvgnd_1
XTAP_316 VGND VPWR sky130_fd_sc_hd__tapvpwrvgnd_1
XTAP_305 VGND VPWR sky130_fd_sc_hd__tapvpwrvgnd_1
X_1003_ _0514_ _0544_ VGND VGND VPWR VPWR _0545_ sky130_fd_sc_hd__and2b_1