* NGSPICE file created from vahid6i.ext - technology: sky130A

* Black-box entry subcircuit for sky130_fd_sc_hd__tapvpwrvgnd_1 abstract view
.subckt sky130_fd_sc_hd__tapvpwrvgnd_1 VGND VPWR
.ends

* Black-box entry subcircuit for sky130_fd_sc_hd__fill_1 abstract view
.subckt sky130_fd_sc_hd__fill_1 VGND VNB VPB VPWR
.ends

* Black-box entry subcircuit for sky130_fd_sc_hd__dfxtp_1 abstract view
.subckt sky130_fd_sc_hd__dfxtp_1 CLK D VGND VNB VPB VPWR Q
.ends

* Black-box entry subcircuit for sky130_fd_sc_hd__o31a_1 abstract view
.subckt sky130_fd_sc_hd__o31a_1 A1 A2 A3 B1 VGND VNB VPB VPWR X
.ends

* Black-box entry subcircuit for sky130_fd_sc_hd__nand2_1 abstract view
.subckt sky130_fd_sc_hd__nand2_1 A B VGND VNB VPB VPWR Y
.ends

* Black-box entry subcircuit for sky130_ef_sc_hd__decap_12 abstract view
.subckt sky130_ef_sc_hd__decap_12 VGND VNB VPB VPWR
.ends

* Black-box entry subcircuit for sky130_fd_sc_hd__a21o_1 abstract view
.subckt sky130_fd_sc_hd__a21o_1 A1 A2 B1 VGND VNB VPB VPWR X
.ends

* Black-box entry subcircuit for sky130_fd_sc_hd__decap_4 abstract view
.subckt sky130_fd_sc_hd__decap_4 VGND VNB VPB VPWR
.ends

* Black-box entry subcircuit for sky130_fd_sc_hd__decap_6 abstract view
.subckt sky130_fd_sc_hd__decap_6 VGND VNB VPB VPWR
.ends

* Black-box entry subcircuit for sky130_fd_sc_hd__fill_2 abstract view
.subckt sky130_fd_sc_hd__fill_2 VGND VNB VPB VPWR
.ends

* Black-box entry subcircuit for sky130_fd_sc_hd__decap_8 abstract view
.subckt sky130_fd_sc_hd__decap_8 VGND VNB VPB VPWR
.ends

* Black-box entry subcircuit for sky130_fd_sc_hd__buf_2 abstract view
.subckt sky130_fd_sc_hd__buf_2 A VGND VNB VPB VPWR X
.ends

* Black-box entry subcircuit for sky130_fd_sc_hd__clkbuf_1 abstract view
.subckt sky130_fd_sc_hd__clkbuf_1 A VGND VNB VPB VPWR X
.ends

* Black-box entry subcircuit for sky130_fd_sc_hd__clkbuf_2 abstract view
.subckt sky130_fd_sc_hd__clkbuf_2 A VGND VNB VPB VPWR X
.ends

* Black-box entry subcircuit for sky130_fd_sc_hd__dlymetal6s2s_1 abstract view
.subckt sky130_fd_sc_hd__dlymetal6s2s_1 A VGND VNB VPB VPWR X
.ends

* Black-box entry subcircuit for sky130_fd_sc_hd__nor4_1 abstract view
.subckt sky130_fd_sc_hd__nor4_1 A B C D VGND VNB VPB VPWR Y
.ends

* Black-box entry subcircuit for sky130_fd_sc_hd__mux2_1 abstract view
.subckt sky130_fd_sc_hd__mux2_1 A0 A1 S VGND VNB VPB VPWR X
.ends

* Black-box entry subcircuit for sky130_fd_sc_hd__decap_3 abstract view
.subckt sky130_fd_sc_hd__decap_3 VGND VNB VPB VPWR
.ends

* Black-box entry subcircuit for sky130_fd_sc_hd__xor2_1 abstract view
.subckt sky130_fd_sc_hd__xor2_1 A B VGND VNB VPB VPWR X
.ends

* Black-box entry subcircuit for sky130_fd_sc_hd__and2b_1 abstract view
.subckt sky130_fd_sc_hd__and2b_1 A_N B VGND VNB VPB VPWR X
.ends

* Black-box entry subcircuit for sky130_fd_sc_hd__a221o_2 abstract view
.subckt sky130_fd_sc_hd__a221o_2 A1 A2 B1 B2 C1 VGND VNB VPB VPWR X
.ends

* Black-box entry subcircuit for sky130_fd_sc_hd__ebufn_1 abstract view
.subckt sky130_fd_sc_hd__ebufn_1 A TE_B VGND VNB VPB VPWR Z
.ends

* Black-box entry subcircuit for sky130_fd_sc_hd__a22oi_2 abstract view
.subckt sky130_fd_sc_hd__a22oi_2 A1 A2 B1 B2 VGND VNB VPB VPWR Y
.ends

* Black-box entry subcircuit for sky130_fd_sc_hd__diode_2 abstract view
.subckt sky130_fd_sc_hd__diode_2 DIODE VGND VNB VPB VPWR
.ends

* Black-box entry subcircuit for sky130_fd_sc_hd__a21oi_1 abstract view
.subckt sky130_fd_sc_hd__a21oi_1 A1 A2 B1 VGND VNB VPB VPWR Y
.ends

* Black-box entry subcircuit for sky130_fd_sc_hd__mux4_1 abstract view
.subckt sky130_fd_sc_hd__mux4_1 A0 A1 A2 A3 S0 S1 VGND VNB VPB VPWR X
.ends

* Black-box entry subcircuit for sky130_fd_sc_hd__a311oi_4 abstract view
.subckt sky130_fd_sc_hd__a311oi_4 A1 A2 A3 B1 C1 VGND VNB VPB VPWR Y
.ends

* Black-box entry subcircuit for sky130_fd_sc_hd__o211a_1 abstract view
.subckt sky130_fd_sc_hd__o211a_1 A1 A2 B1 C1 VGND VNB VPB VPWR X
.ends

* Black-box entry subcircuit for sky130_fd_sc_hd__o21ba_1 abstract view
.subckt sky130_fd_sc_hd__o21ba_1 A1 A2 B1_N VGND VNB VPB VPWR X
.ends

* Black-box entry subcircuit for sky130_fd_sc_hd__buf_4 abstract view
.subckt sky130_fd_sc_hd__buf_4 A VGND VNB VPB VPWR X
.ends

* Black-box entry subcircuit for sky130_fd_sc_hd__and4bb_1 abstract view
.subckt sky130_fd_sc_hd__and4bb_1 A_N B_N C D VGND VNB VPB VPWR X
.ends

* Black-box entry subcircuit for sky130_fd_sc_hd__dlxtp_1 abstract view
.subckt sky130_fd_sc_hd__dlxtp_1 D GATE VGND VNB VPB VPWR Q
.ends

* Black-box entry subcircuit for sky130_fd_sc_hd__o21ai_1 abstract view
.subckt sky130_fd_sc_hd__o21ai_1 A1 A2 B1 VGND VNB VPB VPWR Y
.ends

* Black-box entry subcircuit for sky130_fd_sc_hd__or2b_1 abstract view
.subckt sky130_fd_sc_hd__or2b_1 A B_N VGND VNB VPB VPWR X
.ends

* Black-box entry subcircuit for sky130_fd_sc_hd__or3b_1 abstract view
.subckt sky130_fd_sc_hd__or3b_1 A B C_N VGND VNB VPB VPWR X
.ends

* Black-box entry subcircuit for sky130_fd_sc_hd__clkbuf_4 abstract view
.subckt sky130_fd_sc_hd__clkbuf_4 A VGND VNB VPB VPWR X
.ends

* Black-box entry subcircuit for sky130_fd_sc_hd__nor2_2 abstract view
.subckt sky130_fd_sc_hd__nor2_2 A B VGND VNB VPB VPWR Y
.ends

* Black-box entry subcircuit for sky130_fd_sc_hd__or2_1 abstract view
.subckt sky130_fd_sc_hd__or2_1 A B VGND VNB VPB VPWR X
.ends

* Black-box entry subcircuit for sky130_fd_sc_hd__o22a_1 abstract view
.subckt sky130_fd_sc_hd__o22a_1 A1 A2 B1 B2 VGND VNB VPB VPWR X
.ends

* Black-box entry subcircuit for sky130_fd_sc_hd__o311a_1 abstract view
.subckt sky130_fd_sc_hd__o311a_1 A1 A2 A3 B1 C1 VGND VNB VPB VPWR X
.ends

* Black-box entry subcircuit for sky130_fd_sc_hd__a21bo_1 abstract view
.subckt sky130_fd_sc_hd__a21bo_1 A1 A2 B1_N VGND VNB VPB VPWR X
.ends

* Black-box entry subcircuit for sky130_fd_sc_hd__nor2_1 abstract view
.subckt sky130_fd_sc_hd__nor2_1 A B VGND VNB VPB VPWR Y
.ends

* Black-box entry subcircuit for sky130_fd_sc_hd__xor2_2 abstract view
.subckt sky130_fd_sc_hd__xor2_2 A B VGND VNB VPB VPWR X
.ends

* Black-box entry subcircuit for sky130_fd_sc_hd__or4_1 abstract view
.subckt sky130_fd_sc_hd__or4_1 A B C D VGND VNB VPB VPWR X
.ends

* Black-box entry subcircuit for sky130_fd_sc_hd__a21boi_1 abstract view
.subckt sky130_fd_sc_hd__a21boi_1 A1 A2 B1_N VGND VNB VPB VPWR Y
.ends

* Black-box entry subcircuit for sky130_fd_sc_hd__and2_1 abstract view
.subckt sky130_fd_sc_hd__and2_1 A B VGND VNB VPB VPWR X
.ends

* Black-box entry subcircuit for sky130_fd_sc_hd__a22oi_1 abstract view
.subckt sky130_fd_sc_hd__a22oi_1 A1 A2 B1 B2 VGND VNB VPB VPWR Y
.ends

* Black-box entry subcircuit for sky130_fd_sc_hd__o21ai_2 abstract view
.subckt sky130_fd_sc_hd__o21ai_2 A1 A2 B1 VGND VNB VPB VPWR Y
.ends

* Black-box entry subcircuit for sky130_fd_sc_hd__and4_4 abstract view
.subckt sky130_fd_sc_hd__and4_4 A B C D VGND VNB VPB VPWR X
.ends

* Black-box entry subcircuit for sky130_fd_sc_hd__and3_1 abstract view
.subckt sky130_fd_sc_hd__and3_1 A B C VGND VNB VPB VPWR X
.ends

* Black-box entry subcircuit for sky130_fd_sc_hd__a22o_2 abstract view
.subckt sky130_fd_sc_hd__a22o_2 A1 A2 B1 B2 VGND VNB VPB VPWR X
.ends

* Black-box entry subcircuit for sky130_fd_sc_hd__a31o_1 abstract view
.subckt sky130_fd_sc_hd__a31o_1 A1 A2 A3 B1 VGND VNB VPB VPWR X
.ends

* Black-box entry subcircuit for sky130_fd_sc_hd__nor4b_1 abstract view
.subckt sky130_fd_sc_hd__nor4b_1 A B C D_N VGND VNB VPB VPWR Y
.ends

* Black-box entry subcircuit for sky130_fd_sc_hd__conb_1 abstract view
.subckt sky130_fd_sc_hd__conb_1 VGND VNB VPB VPWR HI LO
.ends

* Black-box entry subcircuit for sky130_fd_sc_hd__a22o_1 abstract view
.subckt sky130_fd_sc_hd__a22o_1 A1 A2 B1 B2 VGND VNB VPB VPWR X
.ends

* Black-box entry subcircuit for sky130_fd_sc_hd__a31oi_2 abstract view
.subckt sky130_fd_sc_hd__a31oi_2 A1 A2 A3 B1 VGND VNB VPB VPWR Y
.ends

* Black-box entry subcircuit for sky130_fd_sc_hd__inv_2 abstract view
.subckt sky130_fd_sc_hd__inv_2 A VGND VNB VPB VPWR Y
.ends

* Black-box entry subcircuit for sky130_fd_sc_hd__a211o_1 abstract view
.subckt sky130_fd_sc_hd__a211o_1 A1 A2 B1 C1 VGND VNB VPB VPWR X
.ends

* Black-box entry subcircuit for sky130_fd_sc_hd__nor3_1 abstract view
.subckt sky130_fd_sc_hd__nor3_1 A B C VGND VNB VPB VPWR Y
.ends

* Black-box entry subcircuit for sky130_fd_sc_hd__nand4_1 abstract view
.subckt sky130_fd_sc_hd__nand4_1 A B C D VGND VNB VPB VPWR Y
.ends

* Black-box entry subcircuit for sky130_fd_sc_hd__a311o_1 abstract view
.subckt sky130_fd_sc_hd__a311o_1 A1 A2 A3 B1 C1 VGND VNB VPB VPWR X
.ends

* Black-box entry subcircuit for sky130_fd_sc_hd__a21o_2 abstract view
.subckt sky130_fd_sc_hd__a21o_2 A1 A2 B1 VGND VNB VPB VPWR X
.ends

* Black-box entry subcircuit for sky130_fd_sc_hd__o22ai_4 abstract view
.subckt sky130_fd_sc_hd__o22ai_4 A1 A2 B1 B2 VGND VNB VPB VPWR Y
.ends

* Black-box entry subcircuit for sky130_fd_sc_hd__nand2_2 abstract view
.subckt sky130_fd_sc_hd__nand2_2 A B VGND VNB VPB VPWR Y
.ends

* Black-box entry subcircuit for sky130_fd_sc_hd__o21a_1 abstract view
.subckt sky130_fd_sc_hd__o21a_1 A1 A2 B1 VGND VNB VPB VPWR X
.ends

* Black-box entry subcircuit for sky130_fd_sc_hd__dfxtp_2 abstract view
.subckt sky130_fd_sc_hd__dfxtp_2 CLK D VGND VNB VPB VPWR Q
.ends

* Black-box entry subcircuit for sky130_fd_sc_hd__clkinv_2 abstract view
.subckt sky130_fd_sc_hd__clkinv_2 A VGND VNB VPB VPWR Y
.ends

* Black-box entry subcircuit for sky130_fd_sc_hd__o2111a_1 abstract view
.subckt sky130_fd_sc_hd__o2111a_1 A1 A2 B1 C1 D1 VGND VNB VPB VPWR X
.ends

* Black-box entry subcircuit for sky130_fd_sc_hd__nand2b_2 abstract view
.subckt sky130_fd_sc_hd__nand2b_2 A_N B VGND VNB VPB VPWR Y
.ends

* Black-box entry subcircuit for sky130_fd_sc_hd__o31ai_1 abstract view
.subckt sky130_fd_sc_hd__o31ai_1 A1 A2 A3 B1 VGND VNB VPB VPWR Y
.ends

* Black-box entry subcircuit for sky130_fd_sc_hd__o2bb2ai_1 abstract view
.subckt sky130_fd_sc_hd__o2bb2ai_1 A1_N A2_N B1 B2 VGND VNB VPB VPWR Y
.ends

* Black-box entry subcircuit for sky130_fd_sc_hd__o221ai_2 abstract view
.subckt sky130_fd_sc_hd__o221ai_2 A1 A2 B1 B2 C1 VGND VNB VPB VPWR Y
.ends

* Black-box entry subcircuit for sky130_fd_sc_hd__or4b_1 abstract view
.subckt sky130_fd_sc_hd__or4b_1 A B C D_N VGND VNB VPB VPWR X
.ends

* Black-box entry subcircuit for sky130_fd_sc_hd__and4_1 abstract view
.subckt sky130_fd_sc_hd__and4_1 A B C D VGND VNB VPB VPWR X
.ends

* Black-box entry subcircuit for sky130_fd_sc_hd__o22ai_2 abstract view
.subckt sky130_fd_sc_hd__o22ai_2 A1 A2 B1 B2 VGND VNB VPB VPWR Y
.ends

* Black-box entry subcircuit for sky130_fd_sc_hd__o22ai_1 abstract view
.subckt sky130_fd_sc_hd__o22ai_1 A1 A2 B1 B2 VGND VNB VPB VPWR Y
.ends

* Black-box entry subcircuit for sky130_fd_sc_hd__o211ai_2 abstract view
.subckt sky130_fd_sc_hd__o211ai_2 A1 A2 B1 C1 VGND VNB VPB VPWR Y
.ends

* Black-box entry subcircuit for sky130_fd_sc_hd__a221o_1 abstract view
.subckt sky130_fd_sc_hd__a221o_1 A1 A2 B1 B2 C1 VGND VNB VPB VPWR X
.ends

* Black-box entry subcircuit for sky130_fd_sc_hd__or3_1 abstract view
.subckt sky130_fd_sc_hd__or3_1 A B C VGND VNB VPB VPWR X
.ends

* Black-box entry subcircuit for sky130_fd_sc_hd__clkbuf_8 abstract view
.subckt sky130_fd_sc_hd__clkbuf_8 A VGND VNB VPB VPWR X
.ends

* Black-box entry subcircuit for sky130_fd_sc_hd__a2bb2o_1 abstract view
.subckt sky130_fd_sc_hd__a2bb2o_1 A1_N A2_N B1 B2 VGND VNB VPB VPWR X
.ends

* Black-box entry subcircuit for sky130_fd_sc_hd__o21bai_2 abstract view
.subckt sky130_fd_sc_hd__o21bai_2 A1 A2 B1_N VGND VNB VPB VPWR Y
.ends

* Black-box entry subcircuit for sky130_fd_sc_hd__dfxtp_4 abstract view
.subckt sky130_fd_sc_hd__dfxtp_4 CLK D VGND VNB VPB VPWR Q
.ends

* Black-box entry subcircuit for sky130_fd_sc_hd__and3b_1 abstract view
.subckt sky130_fd_sc_hd__and3b_1 A_N B C VGND VNB VPB VPWR X
.ends

* Black-box entry subcircuit for sky130_fd_sc_hd__o2bb2a_1 abstract view
.subckt sky130_fd_sc_hd__o2bb2a_1 A1_N A2_N B1 B2 VGND VNB VPB VPWR X
.ends

* Black-box entry subcircuit for sky130_fd_sc_hd__a21oi_4 abstract view
.subckt sky130_fd_sc_hd__a21oi_4 A1 A2 B1 VGND VNB VPB VPWR Y
.ends

* Black-box entry subcircuit for sky130_fd_sc_hd__o221ai_4 abstract view
.subckt sky130_fd_sc_hd__o221ai_4 A1 A2 B1 B2 C1 VGND VNB VPB VPWR Y
.ends

* Black-box entry subcircuit for sky130_fd_sc_hd__o221a_1 abstract view
.subckt sky130_fd_sc_hd__o221a_1 A1 A2 B1 B2 C1 VGND VNB VPB VPWR X
.ends

* Black-box entry subcircuit for sky130_fd_sc_hd__a21oi_2 abstract view
.subckt sky130_fd_sc_hd__a21oi_2 A1 A2 B1 VGND VNB VPB VPWR Y
.ends

* Black-box entry subcircuit for sky130_fd_sc_hd__and3_2 abstract view
.subckt sky130_fd_sc_hd__and3_2 A B C VGND VNB VPB VPWR X
.ends

* Black-box entry subcircuit for sky130_fd_sc_hd__and4_2 abstract view
.subckt sky130_fd_sc_hd__and4_2 A B C D VGND VNB VPB VPWR X
.ends

* Black-box entry subcircuit for sky130_fd_sc_hd__nor3b_2 abstract view
.subckt sky130_fd_sc_hd__nor3b_2 A B C_N VGND VNB VPB VPWR Y
.ends

* Black-box entry subcircuit for sky130_fd_sc_hd__nor4_4 abstract view
.subckt sky130_fd_sc_hd__nor4_4 A B C D VGND VNB VPB VPWR Y
.ends

* Black-box entry subcircuit for sky130_fd_sc_hd__nor3b_1 abstract view
.subckt sky130_fd_sc_hd__nor3b_1 A B C_N VGND VNB VPB VPWR Y
.ends

* Black-box entry subcircuit for sky130_fd_sc_hd__or3b_2 abstract view
.subckt sky130_fd_sc_hd__or3b_2 A B C_N VGND VNB VPB VPWR X
.ends

* Black-box entry subcircuit for sky130_fd_sc_hd__or3_4 abstract view
.subckt sky130_fd_sc_hd__or3_4 A B C VGND VNB VPB VPWR X
.ends

* Black-box entry subcircuit for sky130_fd_sc_hd__or4bb_4 abstract view
.subckt sky130_fd_sc_hd__or4bb_4 A B C_N D_N VGND VNB VPB VPWR X
.ends

* Black-box entry subcircuit for sky130_fd_sc_hd__ebufn_2 abstract view
.subckt sky130_fd_sc_hd__ebufn_2 A TE_B VGND VNB VPB VPWR Z
.ends

* Black-box entry subcircuit for sky130_fd_sc_hd__and4b_4 abstract view
.subckt sky130_fd_sc_hd__and4b_4 A_N B C D VGND VNB VPB VPWR X
.ends

* Black-box entry subcircuit for sky130_fd_sc_hd__a32o_2 abstract view
.subckt sky130_fd_sc_hd__a32o_2 A1 A2 A3 B1 B2 VGND VNB VPB VPWR X
.ends

* Black-box entry subcircuit for sky130_fd_sc_hd__or4_2 abstract view
.subckt sky130_fd_sc_hd__or4_2 A B C D VGND VNB VPB VPWR X
.ends

* Black-box entry subcircuit for sky130_fd_sc_hd__nand3_1 abstract view
.subckt sky130_fd_sc_hd__nand3_1 A B C VGND VNB VPB VPWR Y
.ends

* Black-box entry subcircuit for sky130_fd_sc_hd__and4b_2 abstract view
.subckt sky130_fd_sc_hd__and4b_2 A_N B C D VGND VNB VPB VPWR X
.ends

* Black-box entry subcircuit for sky130_fd_sc_hd__xnor2_2 abstract view
.subckt sky130_fd_sc_hd__xnor2_2 A B VGND VNB VPB VPWR Y
.ends

* Black-box entry subcircuit for sky130_fd_sc_hd__a2bb2oi_2 abstract view
.subckt sky130_fd_sc_hd__a2bb2oi_2 A1_N A2_N B1 B2 VGND VNB VPB VPWR Y
.ends

* Black-box entry subcircuit for sky130_fd_sc_hd__xnor2_1 abstract view
.subckt sky130_fd_sc_hd__xnor2_1 A B VGND VNB VPB VPWR Y
.ends

* Black-box entry subcircuit for sky130_fd_sc_hd__o21ai_4 abstract view
.subckt sky130_fd_sc_hd__o21ai_4 A1 A2 B1 VGND VNB VPB VPWR Y
.ends

* Black-box entry subcircuit for sky130_fd_sc_hd__or2_2 abstract view
.subckt sky130_fd_sc_hd__or2_2 A B VGND VNB VPB VPWR X
.ends

* Black-box entry subcircuit for sky130_fd_sc_hd__o21bai_1 abstract view
.subckt sky130_fd_sc_hd__o21bai_1 A1 A2 B1_N VGND VNB VPB VPWR Y
.ends

* Black-box entry subcircuit for sky130_fd_sc_hd__and3_4 abstract view
.subckt sky130_fd_sc_hd__and3_4 A B C VGND VNB VPB VPWR X
.ends

* Black-box entry subcircuit for sky130_fd_sc_hd__o2111ai_2 abstract view
.subckt sky130_fd_sc_hd__o2111ai_2 A1 A2 B1 C1 D1 VGND VNB VPB VPWR Y
.ends

* Black-box entry subcircuit for sky130_fd_sc_hd__o2bb2ai_4 abstract view
.subckt sky130_fd_sc_hd__o2bb2ai_4 A1_N A2_N B1 B2 VGND VNB VPB VPWR Y
.ends

* Black-box entry subcircuit for sky130_fd_sc_hd__a31o_2 abstract view
.subckt sky130_fd_sc_hd__a31o_2 A1 A2 A3 B1 VGND VNB VPB VPWR X
.ends

* Black-box entry subcircuit for sky130_fd_sc_hd__and3b_4 abstract view
.subckt sky130_fd_sc_hd__and3b_4 A_N B C VGND VNB VPB VPWR X
.ends

* Black-box entry subcircuit for sky130_fd_sc_hd__a221oi_4 abstract view
.subckt sky130_fd_sc_hd__a221oi_4 A1 A2 B1 B2 C1 VGND VNB VPB VPWR Y
.ends

* Black-box entry subcircuit for sky130_fd_sc_hd__a32o_1 abstract view
.subckt sky130_fd_sc_hd__a32o_1 A1 A2 A3 B1 B2 VGND VNB VPB VPWR X
.ends

* Black-box entry subcircuit for sky130_fd_sc_hd__or4bb_1 abstract view
.subckt sky130_fd_sc_hd__or4bb_1 A B C_N D_N VGND VNB VPB VPWR X
.ends

* Black-box entry subcircuit for sky130_fd_sc_hd__o2111ai_1 abstract view
.subckt sky130_fd_sc_hd__o2111ai_1 A1 A2 B1 C1 D1 VGND VNB VPB VPWR Y
.ends

* Black-box entry subcircuit for sky130_fd_sc_hd__a2bb2oi_1 abstract view
.subckt sky130_fd_sc_hd__a2bb2oi_1 A1_N A2_N B1 B2 VGND VNB VPB VPWR Y
.ends

.subckt vahid6i D_R_data[0] D_R_data[10] D_R_data[11] D_R_data[12] D_R_data[13] D_R_data[14]
+ D_R_data[15] D_R_data[1] D_R_data[2] D_R_data[3] D_R_data[4] D_R_data[5] D_R_data[6]
+ D_R_data[7] D_R_data[8] D_R_data[9] D_W_data[0] D_W_data[10] D_W_data[11] D_W_data[12]
+ D_W_data[13] D_W_data[14] D_W_data[15] D_W_data[1] D_W_data[2] D_W_data[3] D_W_data[4]
+ D_W_data[5] D_W_data[6] D_W_data[7] D_W_data[8] D_W_data[9] D_addr[0] D_addr[1]
+ D_addr[2] D_addr[3] D_addr[4] D_addr[5] D_addr[6] D_addr[7] D_rd D_wr I_addr[0]
+ I_addr[10] I_addr[11] I_addr[12] I_addr[13] I_addr[14] I_addr[15] I_addr[1] I_addr[2]
+ I_addr[3] I_addr[4] I_addr[5] I_addr[6] I_addr[7] I_addr[8] I_addr[9] I_data[0]
+ I_data[10] I_data[11] I_data[12] I_data[13] I_data[14] I_data[15] I_data[1] I_data[2]
+ I_data[3] I_data[4] I_data[5] I_data[6] I_data[7] I_data[8] I_data[9] I_rd VGND
+ VPWR clock led_clock leds[0] leds[1] leds[2] leds[3] reset
XTAP_188 VGND VPWR sky130_fd_sc_hd__tapvpwrvgnd_1
XTAP_177 VGND VPWR sky130_fd_sc_hd__tapvpwrvgnd_1
XTAP_199 VGND VPWR sky130_fd_sc_hd__tapvpwrvgnd_1
XFILLER_39_255 VGND VGND VPWR VPWR sky130_fd_sc_hd__fill_1
X_3155_ net142 _0130_ VGND VGND VPWR VPWR po_0.regf_0.rf\[13\]\[2\] sky130_fd_sc_hd__dfxtp_1
X_3086_ net109 _0009_ VGND VGND VPWR VPWR _0001_ sky130_fd_sc_hd__dfxtp_1
X_2106_ _0721_ _0722_ _0723_ _0726_ VGND VGND VPWR VPWR _0727_ sky130_fd_sc_hd__o31a_1
X_2037_ _0632_ _0649_ VGND VGND VPWR VPWR _0663_ sky130_fd_sc_hd__nand2_1
XFILLER_35_461 VGND VGND VPWR VPWR sky130_ef_sc_hd__decap_12
XFILLER_22_166 VGND VGND VPWR VPWR sky130_ef_sc_hd__decap_12
X_2939_ net91 _1219_ _0563_ VGND VGND VPWR VPWR _0307_ sky130_fd_sc_hd__a21o_1
XFILLER_45_258 VGND VGND VPWR VPWR sky130_fd_sc_hd__decap_4
XFILLER_13_100 VGND VGND VPWR VPWR sky130_ef_sc_hd__decap_12
XFILLER_26_52 VGND VGND VPWR VPWR sky130_ef_sc_hd__decap_12
XFILLER_26_85 VGND VGND VPWR VPWR sky130_fd_sc_hd__decap_4
XFILLER_41_442 VGND VGND VPWR VPWR sky130_fd_sc_hd__decap_6
XFILLER_41_475 VGND VGND VPWR VPWR sky130_ef_sc_hd__decap_12
XFILLER_9_159 VGND VGND VPWR VPWR sky130_fd_sc_hd__fill_2
XFILLER_83_309 VGND VGND VPWR VPWR sky130_ef_sc_hd__decap_12
XFILLER_67_92 VGND VGND VPWR VPWR sky130_ef_sc_hd__decap_12
XFILLER_17_472 VGND VGND VPWR VPWR sky130_ef_sc_hd__decap_12
XFILLER_32_442 VGND VGND VPWR VPWR sky130_fd_sc_hd__decap_8
X_2724_ _1133_ VGND VGND VPWR VPWR _1134_ sky130_fd_sc_hd__buf_2
X_2655_ _1096_ VGND VGND VPWR VPWR _0197_ sky130_fd_sc_hd__clkbuf_1
X_1606_ _1390_ VGND VGND VPWR VPWR _1409_ sky130_fd_sc_hd__clkbuf_2
X_2586_ _1051_ VGND VGND VPWR VPWR _1059_ sky130_fd_sc_hd__buf_2
Xfanout105 net117 VGND VGND VPWR VPWR net105 sky130_fd_sc_hd__dlymetal6s2s_1
X_1537_ net39 net38 net41 net40 VGND VGND VPWR VPWR _1349_ sky130_fd_sc_hd__nor4_1
Xfanout127 net136 VGND VGND VPWR VPWR net127 sky130_fd_sc_hd__dlymetal6s2s_1
Xfanout116 net117 VGND VGND VPWR VPWR net116 sky130_fd_sc_hd__dlymetal6s2s_1
Xfanout138 net139 VGND VGND VPWR VPWR net138 sky130_fd_sc_hd__dlymetal6s2s_1
Xfanout149 net155 VGND VGND VPWR VPWR net149 sky130_fd_sc_hd__dlymetal6s2s_1
X_3207_ net114 _0182_ VGND VGND VPWR VPWR po_0.regf_0.rf\[10\]\[6\] sky130_fd_sc_hd__dfxtp_1
XFILLER_27_225 VGND VGND VPWR VPWR sky130_fd_sc_hd__decap_8
X_3138_ net140 _0113_ VGND VGND VPWR VPWR po_0.regf_0.rf\[14\]\[1\] sky130_fd_sc_hd__dfxtp_1
XFILLER_42_217 VGND VGND VPWR VPWR sky130_fd_sc_hd__fill_2
X_3069_ net169 _0048_ VGND VGND VPWR VPWR po_0.regf_0.rf\[6\]\[0\] sky130_fd_sc_hd__dfxtp_1
XFILLER_23_453 VGND VGND VPWR VPWR sky130_fd_sc_hd__decap_4
XFILLER_50_261 VGND VGND VPWR VPWR sky130_fd_sc_hd__fill_1
XFILLER_10_158 VGND VGND VPWR VPWR sky130_fd_sc_hd__fill_1
XFILLER_10_147 VGND VGND VPWR VPWR sky130_fd_sc_hd__fill_1
XFILLER_12_65 VGND VGND VPWR VPWR sky130_ef_sc_hd__decap_12
XFILLER_77_125 VGND VGND VPWR VPWR sky130_ef_sc_hd__decap_12
XFILLER_65_309 VGND VGND VPWR VPWR sky130_fd_sc_hd__fill_2
XFILLER_77_158 VGND VGND VPWR VPWR sky130_fd_sc_hd__decap_8
XFILLER_77_169 VGND VGND VPWR VPWR sky130_fd_sc_hd__fill_2
XFILLER_33_217 VGND VGND VPWR VPWR sky130_fd_sc_hd__decap_6
X_2440_ _0975_ VGND VGND VPWR VPWR _0103_ sky130_fd_sc_hd__clkbuf_1
X_2371_ _0932_ VGND VGND VPWR VPWR _0077_ sky130_fd_sc_hd__clkbuf_1
XFILLER_68_103 VGND VGND VPWR VPWR sky130_ef_sc_hd__decap_12
XFILLER_68_125 VGND VGND VPWR VPWR sky130_ef_sc_hd__decap_12
XFILLER_83_139 VGND VGND VPWR VPWR sky130_fd_sc_hd__fill_1
XFILLER_64_342 VGND VGND VPWR VPWR sky130_ef_sc_hd__decap_12
XFILLER_20_445 VGND VGND VPWR VPWR sky130_fd_sc_hd__decap_8
X_2707_ _1124_ VGND VGND VPWR VPWR _0221_ sky130_fd_sc_hd__clkbuf_1
X_2638_ po_0.regf_0.rf\[10\]\[14\] _0988_ _1070_ VGND VGND VPWR VPWR _1087_ sky130_fd_sc_hd__mux2_1
X_2569_ po_0.regf_0.rf\[12\]\[15\] _0990_ _1031_ VGND VGND VPWR VPWR _1049_ sky130_fd_sc_hd__mux2_1
XFILLER_74_139 VGND VGND VPWR VPWR sky130_fd_sc_hd__fill_1
XFILLER_74_27 VGND VGND VPWR VPWR sky130_fd_sc_hd__fill_1
XFILLER_15_239 VGND VGND VPWR VPWR sky130_ef_sc_hd__decap_12
XFILLER_11_423 VGND VGND VPWR VPWR sky130_ef_sc_hd__decap_12
XFILLER_23_272 VGND VGND VPWR VPWR sky130_fd_sc_hd__fill_2
XFILLER_7_405 VGND VGND VPWR VPWR sky130_ef_sc_hd__decap_12
XFILLER_23_53 VGND VGND VPWR VPWR sky130_fd_sc_hd__decap_3
XFILLER_7_449 VGND VGND VPWR VPWR sky130_ef_sc_hd__decap_12
XFILLER_2_121 VGND VGND VPWR VPWR sky130_ef_sc_hd__decap_12
XFILLER_78_401 VGND VGND VPWR VPWR sky130_fd_sc_hd__decap_8
XFILLER_78_445 VGND VGND VPWR VPWR sky130_ef_sc_hd__decap_12
XFILLER_38_309 VGND VGND VPWR VPWR sky130_fd_sc_hd__decap_4
XFILLER_48_61 VGND VGND VPWR VPWR sky130_fd_sc_hd__fill_1
XFILLER_78_489 VGND VGND VPWR VPWR sky130_fd_sc_hd__decap_8
XFILLER_80_109 VGND VGND VPWR VPWR sky130_ef_sc_hd__decap_12
XFILLER_0_57 VGND VGND VPWR VPWR sky130_fd_sc_hd__fill_2
XFILLER_9_33 VGND VGND VPWR VPWR sky130_ef_sc_hd__decap_12
X_1940_ _0572_ _0577_ VGND VGND VPWR VPWR po_0.alu_0._10_\[1\] sky130_fd_sc_hd__xor2_1
X_1871_ _0430_ _0518_ VGND VGND VPWR VPWR _0519_ sky130_fd_sc_hd__and2b_1
X_2423_ po_0.regf_0.rf\[15\]\[2\] _0963_ _0959_ VGND VGND VPWR VPWR _0964_ sky130_fd_sc_hd__mux2_1
X_2354_ _0923_ VGND VGND VPWR VPWR _0069_ sky130_fd_sc_hd__clkbuf_1
X_2285_ _0885_ VGND VGND VPWR VPWR _0038_ sky130_fd_sc_hd__clkbuf_1
XFILLER_56_139 VGND VGND VPWR VPWR sky130_fd_sc_hd__fill_1
XFILLER_71_109 VGND VGND VPWR VPWR sky130_fd_sc_hd__decap_3
XFILLER_12_209 VGND VGND VPWR VPWR sky130_fd_sc_hd__decap_8
XFILLER_60_29 VGND VGND VPWR VPWR sky130_fd_sc_hd__decap_4
XFILLER_28_386 VGND VGND VPWR VPWR sky130_ef_sc_hd__decap_12
XFILLER_34_41 VGND VGND VPWR VPWR sky130_fd_sc_hd__fill_1
XFILLER_43_389 VGND VGND VPWR VPWR sky130_fd_sc_hd__decap_3
XFILLER_11_231 VGND VGND VPWR VPWR sky130_fd_sc_hd__decap_6
XFILLER_34_85 VGND VGND VPWR VPWR sky130_ef_sc_hd__decap_12
XFILLER_70_197 VGND VGND VPWR VPWR sky130_fd_sc_hd__decap_8
XFILLER_7_246 VGND VGND VPWR VPWR sky130_fd_sc_hd__decap_4
XFILLER_7_279 VGND VGND VPWR VPWR sky130_fd_sc_hd__fill_1
XTAP_507 VGND VPWR sky130_fd_sc_hd__tapvpwrvgnd_1
XFILLER_3_485 VGND VGND VPWR VPWR sky130_ef_sc_hd__decap_12
XTAP_518 VGND VPWR sky130_fd_sc_hd__tapvpwrvgnd_1
XTAP_529 VGND VPWR sky130_fd_sc_hd__tapvpwrvgnd_1
XFILLER_22_7 VGND VGND VPWR VPWR sky130_ef_sc_hd__decap_12
XFILLER_78_242 VGND VGND VPWR VPWR sky130_fd_sc_hd__decap_8
XFILLER_78_253 VGND VGND VPWR VPWR sky130_fd_sc_hd__decap_8
X_2070_ _0681_ _0683_ _0685_ net1 _0692_ VGND VGND VPWR VPWR _0693_ sky130_fd_sc_hd__a221o_2
XFILLER_78_297 VGND VGND VPWR VPWR sky130_fd_sc_hd__fill_1
XFILLER_81_429 VGND VGND VPWR VPWR sky130_ef_sc_hd__decap_12
XFILLER_75_81 VGND VGND VPWR VPWR sky130_ef_sc_hd__decap_12
XFILLER_34_301 VGND VGND VPWR VPWR sky130_fd_sc_hd__decap_6
XFILLER_46_183 VGND VGND VPWR VPWR sky130_fd_sc_hd__decap_3
XFILLER_34_389 VGND VGND VPWR VPWR sky130_fd_sc_hd__fill_2
X_2972_ _1296_ VGND VGND VPWR VPWR _0321_ sky130_fd_sc_hd__clkbuf_1
X_1923_ _0564_ VGND VGND VPWR VPWR _0012_ sky130_fd_sc_hd__clkbuf_1
X_1854_ _0502_ _0503_ _0414_ VGND VGND VPWR VPWR _0504_ sky130_fd_sc_hd__mux2_1
X_1785_ _0440_ _0411_ _0420_ VGND VGND VPWR VPWR _0441_ sky130_fd_sc_hd__a21o_1
X_2406_ _0952_ VGND VGND VPWR VPWR _0092_ sky130_fd_sc_hd__clkbuf_1
X_3386_ po_0.alu_0._10_\[7\] _1475_ VGND VGND VPWR VPWR po_0.alu_0._11_\[7\] sky130_fd_sc_hd__ebufn_1
X_2337_ _0913_ VGND VGND VPWR VPWR _0062_ sky130_fd_sc_hd__clkbuf_1
X_2268_ po_0.regf_0.w_addr\[2\] VGND VGND VPWR VPWR _0875_ sky130_fd_sc_hd__dlymetal6s2s_1
X_2199_ net49 po_0._1_\[8\] po_0._1_\[9\] _0633_ VGND VGND VPWR VPWR _0812_ sky130_fd_sc_hd__a22oi_2
XFILLER_37_161 VGND VGND VPWR VPWR sky130_fd_sc_hd__fill_1
XFILLER_52_153 VGND VGND VPWR VPWR sky130_ef_sc_hd__decap_12
XFILLER_25_389 VGND VGND VPWR VPWR sky130_fd_sc_hd__decap_3
XFILLER_52_197 VGND VGND VPWR VPWR sky130_ef_sc_hd__decap_12
XFILLER_71_39 VGND VGND VPWR VPWR sky130_ef_sc_hd__decap_12
XFILLER_4_249 VGND VGND VPWR VPWR sky130_fd_sc_hd__decap_3
XFILLER_0_411 VGND VGND VPWR VPWR sky130_fd_sc_hd__decap_4
XFILLER_0_433 VGND VGND VPWR VPWR sky130_ef_sc_hd__decap_12
XFILLER_0_477 VGND VGND VPWR VPWR sky130_fd_sc_hd__decap_6
XFILLER_29_52 VGND VGND VPWR VPWR sky130_fd_sc_hd__decap_4
XFILLER_48_404 VGND VGND VPWR VPWR sky130_fd_sc_hd__decap_3
XFILLER_35_109 VGND VGND VPWR VPWR sky130_fd_sc_hd__decap_3
XFILLER_71_473 VGND VGND VPWR VPWR sky130_ef_sc_hd__decap_12
XFILLER_31_337 VGND VGND VPWR VPWR sky130_ef_sc_hd__decap_12
XFILLER_61_61 VGND VGND VPWR VPWR sky130_fd_sc_hd__fill_1
X_1570_ uc_0._20_\[10\] po_0.regf_0.rp_addr\[2\] _1373_ VGND VGND VPWR VPWR _1376_
+ sky130_fd_sc_hd__mux2_1
XANTENNA_5 net48 VGND VGND VPWR VPWR sky130_fd_sc_hd__diode_2
XTAP_315 VGND VPWR sky130_fd_sc_hd__tapvpwrvgnd_1
XTAP_304 VGND VPWR sky130_fd_sc_hd__tapvpwrvgnd_1
XTAP_348 VGND VPWR sky130_fd_sc_hd__tapvpwrvgnd_1
XTAP_337 VGND VPWR sky130_fd_sc_hd__tapvpwrvgnd_1
XTAP_326 VGND VPWR sky130_fd_sc_hd__tapvpwrvgnd_1
X_3240_ net115 _0215_ VGND VGND VPWR VPWR po_0.regf_0.rf\[8\]\[7\] sky130_fd_sc_hd__dfxtp_1
XTAP_359 VGND VPWR sky130_fd_sc_hd__tapvpwrvgnd_1
X_3171_ net142 _0146_ VGND VGND VPWR VPWR po_0.regf_0.rf\[12\]\[2\] sky130_fd_sc_hd__dfxtp_1
XFILLER_13_3 VGND VGND VPWR VPWR sky130_ef_sc_hd__decap_12
X_2122_ _0741_ VGND VGND VPWR VPWR _0742_ sky130_fd_sc_hd__dlymetal6s2s_1
X_2053_ _0670_ _0672_ _0676_ VGND VGND VPWR VPWR _0677_ sky130_fd_sc_hd__a21oi_1
XFILLER_81_259 VGND VGND VPWR VPWR sky130_fd_sc_hd__fill_2
XFILLER_34_197 VGND VGND VPWR VPWR sky130_ef_sc_hd__decap_12
X_2955_ uc_0._20_\[9\] po_0.regf_0.rp_addr\[1\] _1373_ VGND VGND VPWR VPWR _1286_
+ sky130_fd_sc_hd__mux2_1
X_1906_ _0508_ _0549_ VGND VGND VPWR VPWR _0550_ sky130_fd_sc_hd__and2b_1
X_2886_ _1250_ VGND VGND VPWR VPWR _0281_ sky130_fd_sc_hd__clkbuf_1
X_1837_ po_0.regf_0.rf\[4\]\[6\] po_0.regf_0.rf\[5\]\[6\] po_0.regf_0.rf\[6\]\[6\]
+ po_0.regf_0.rf\[7\]\[6\] _0427_ _0428_ VGND VGND VPWR VPWR _0489_ sky130_fd_sc_hd__mux4_1
X_1768_ po_0.regf_0.rf\[0\]\[0\] po_0.regf_0.rf\[1\]\[0\] po_0.regf_0.rf\[2\]\[0\]
+ po_0.regf_0.rf\[3\]\[0\] _0423_ _0425_ VGND VGND VPWR VPWR _0426_ sky130_fd_sc_hd__mux4_1
X_1699_ _1378_ _0362_ VGND VGND VPWR VPWR _0363_ sky130_fd_sc_hd__and2b_1
XTAP_871 VGND VPWR sky130_fd_sc_hd__tapvpwrvgnd_1
XTAP_860 VGND VPWR sky130_fd_sc_hd__tapvpwrvgnd_1
X_3369_ net170 uc_0.bc_0._54_\[2\] VGND VGND VPWR VPWR uc_0.bc_0._55_\[2\] sky130_fd_sc_hd__dfxtp_1
XTAP_893 VGND VPWR sky130_fd_sc_hd__tapvpwrvgnd_1
XTAP_882 VGND VPWR sky130_fd_sc_hd__tapvpwrvgnd_1
XFILLER_45_429 VGND VGND VPWR VPWR sky130_fd_sc_hd__decap_8
XFILLER_53_473 VGND VGND VPWR VPWR sky130_fd_sc_hd__fill_1
XFILLER_13_348 VGND VGND VPWR VPWR sky130_ef_sc_hd__decap_12
XFILLER_13_337 VGND VGND VPWR VPWR sky130_fd_sc_hd__fill_1
XFILLER_40_178 VGND VGND VPWR VPWR sky130_fd_sc_hd__decap_6
XFILLER_31_42 VGND VGND VPWR VPWR sky130_fd_sc_hd__decap_4
Xoutput42 net42 VGND VGND VPWR VPWR D_W_data[1] sky130_fd_sc_hd__buf_2
Xoutput75 net75 VGND VGND VPWR VPWR I_addr[8] sky130_fd_sc_hd__buf_2
Xoutput53 net53 VGND VGND VPWR VPWR D_addr[2] sky130_fd_sc_hd__buf_2
Xoutput64 net64 VGND VGND VPWR VPWR I_addr[12] sky130_fd_sc_hd__buf_2
XFILLER_48_212 VGND VGND VPWR VPWR sky130_fd_sc_hd__decap_4
XFILLER_63_215 VGND VGND VPWR VPWR sky130_fd_sc_hd__decap_8
XFILLER_63_237 VGND VGND VPWR VPWR sky130_fd_sc_hd__fill_1
XFILLER_29_492 VGND VGND VPWR VPWR sky130_fd_sc_hd__decap_4
XFILLER_44_462 VGND VGND VPWR VPWR sky130_ef_sc_hd__decap_12
XFILLER_16_197 VGND VGND VPWR VPWR sky130_fd_sc_hd__decap_6
XFILLER_71_270 VGND VGND VPWR VPWR sky130_fd_sc_hd__decap_8
XFILLER_71_281 VGND VGND VPWR VPWR sky130_fd_sc_hd__decap_8
X_2740_ _1142_ VGND VGND VPWR VPWR _0236_ sky130_fd_sc_hd__clkbuf_1
X_2671_ _0849_ po_0.regf_0.rf\[0\]\[13\] _1089_ VGND VGND VPWR VPWR _1105_ sky130_fd_sc_hd__mux2_1
X_1622_ _1378_ _1423_ VGND VGND VPWR VPWR _1424_ sky130_fd_sc_hd__and2b_1
X_1553_ _1362_ uc_0.bc_0._55_\[1\] uc_0.bc_0._55_\[0\] uc_0.bc_0._55_\[2\] uc_0.bc_0._55_\[3\]
+ VGND VGND VPWR VPWR _1363_ sky130_fd_sc_hd__a311oi_4
X_1484_ po_0.alu_0.s0 VGND VGND VPWR VPWR _1313_ sky130_fd_sc_hd__clkbuf_2
XFILLER_79_370 VGND VGND VPWR VPWR sky130_ef_sc_hd__decap_12
X_3223_ net132 _0198_ VGND VGND VPWR VPWR po_0.regf_0.rf\[0\]\[6\] sky130_fd_sc_hd__dfxtp_1
XTAP_189 VGND VPWR sky130_fd_sc_hd__tapvpwrvgnd_1
XTAP_178 VGND VPWR sky130_fd_sc_hd__tapvpwrvgnd_1
X_3154_ net142 _0129_ VGND VGND VPWR VPWR po_0.regf_0.rf\[13\]\[1\] sky130_fd_sc_hd__dfxtp_1