*SPEF "ieee 1481-1999"
*DESIGN "vahid6i"
*DATE "11:11:11 Fri 11 11, 1111"
*VENDOR "OpenRCX"
*PROGRAM "Parallel Extraction"
*VERSION "1.0"
*DESIGN_FLOW "NAME_SCOPE LOCAL" "PIN_CAP NONE"
*DIVIDER /
*DELIMITER :
*BUS_DELIMITER []
*T_UNIT 1 NS
*C_UNIT 1 PF
*R_UNIT 1 OHM
*L_UNIT 1 HENRY

*NAME_MAP
*1 D_R_data[0]
*2 D_R_data[1]
*3 D_R_data[2]
*4 D_R_data[3]
*5 D_R_data[4]
*6 D_R_data[5]
*7 D_R_data[6]
*8 D_R_data[7]
*9 D_W_data[0]
*10 D_W_data[1]
*11 D_W_data[2]
*12 D_W_data[3]
*13 D_W_data[4]
*14 D_W_data[5]
*15 D_W_data[6]
*16 D_W_data[7]
*17 D_addr[0]
*18 D_addr[1]
*19 D_addr[2]
*20 D_addr[3]
*21 D_addr[4]
*22 D_addr[5]
*23 D_addr[6]
*24 D_addr[7]
*25 D_rd
*26 D_wr
*27 I_addr[0]
*28 I_addr[1]
*29 I_addr[2]
*30 I_addr[3]
*31 I_addr[4]
*32 I_addr[5]
*33 I_addr[6]
*34 I_addr[7]
*35 I_data[0]
*36 I_data[1]
*37 I_data[2]
*38 I_data[3]
*39 I_data[4]
*40 I_data[5]
*41 I_data[6]
*42 I_data[7]
*43 net110
*46 clock
*47 led_clock
*48 leds[0]
*49 leds[1]
*50 leds[2]
*51 leds[3]
*52 reset
*53 _0000_
*54 _0001_
*55 _0002_
*56 _0003_
*57 _0004_
*58 _0005_
*59 _0006_
*60 _0007_
*61 _0008_
*62 _0009_
*63 _0010_
*64 _0011_
*65 _0012_
*66 _0013_
*67 _0014_
*68 _0015_
*69 _0016_
*70 _0017_
*71 _0018_
*72 _0019_
*73 _0020_
*74 _0021_
*75 _0022_
*76 _0023_
*77 _0024_
*78 _0025_
*79 _0026_
*80 _0027_
*81 _0028_
*82 _0029_
*83 _0030_
*84 _0031_
*85 _0032_
*86 _0033_
*87 _0034_
*88 _0035_
*89 _0036_
*90 _0037_
*91 _0038_
*92 _0039_
*93 _0040_
*94 _0041_
*95 _0042_
*96 _0043_
*97 _0044_
*98 _0045_
*99 _0046_
*100 _0047_
*101 _0048_
*102 _0049_
*103 _0050_
*104 _0051_
*105 _0052_
*106 _0053_
*107 _0054_
*108 _0055_
*109 _0056_
*110 _0057_
*111 _0058_
*112 _0059_
*113 _0060_
*114 _0061_
*115 _0062_
*116 _0063_
*117 _0064_
*118 _0065_
*119 _0066_
*120 _0067_
*121 _0068_
*122 _0069_
*123 _0070_
*124 _0071_
*125 _0072_
*126 _0073_
*127 _0074_
*128 _0075_
*129 _0076_
*130 _0077_
*131 _0078_
*132 _0079_
*133 _0080_
*134 _0081_
*135 _0082_
*136 _0083_
*137 _0084_
*138 _0085_
*139 _0086_
*140 _0087_
*141 _0088_
*142 _0089_
*143 _0090_
*144 _0091_
*145 _0092_
*146 _0093_
*147 _0094_
*148 _0095_
*149 _0096_
*150 _0097_
*151 _0098_
*152 _0099_
*153 _0100_
*154 _0101_
*155 _0102_
*156 _0103_
*157 _0104_
*158 _0105_
*159 _0106_
*160 _0107_
*161 _0108_
*162 _0109_
*163 _0110_
*164 _0111_
*165 _0112_
*166 _0113_
*167 _0114_
*168 _0115_
*169 _0116_
*170 _0117_
*171 _0118_
*172 _0119_
*173 _0120_
*174 _0121_
*175 _0122_
*176 _0123_
*177 _0124_
*178 _0125_
*179 _0126_
*180 _0127_
*181 _0128_
*182 _0129_
*183 _0130_
*184 _0131_
*185 _0132_
*186 _0133_
*187 _0134_
*188 _0135_
*189 _0136_
*190 _0137_
*191 _0138_
*192 _0139_
*193 _0140_
*194 _0141_
*195 _0142_
*196 _0143_
*197 _0144_
*198 _0145_
*199 _0146_
*200 _0147_
*201 _0148_
*202 _0149_
*203 _0150_
*204 _0151_
*205 _0152_
*206 _0153_
*207 _0154_
*208 _0155_
*209 _0156_
*210 _0157_
*211 _0158_
*212 _0159_
*213 _0160_
*214 _0161_
*215 _0162_
*216 _0163_
*217 _0164_
*218 _0165_
*219 _0166_
*220 _0167_
*221 _0168_
*222 _0169_
*223 _0170_
*224 _0171_
*225 _0172_
*226 _0173_
*227 _0174_
*228 _0175_
*229 _0176_
*230 _0177_
*231 _0178_
*232 _0179_
*233 _0180_
*234 _0181_
*235 _0182_
*236 _0183_
*237 _0184_
*238 _0185_
*239 _0186_
*240 _0187_
*241 _0188_
*242 _0189_
*243 _0190_
*244 _0191_
*245 _0192_
*246 _0193_
*247 _0194_
*248 _0195_
*249 _0196_
*250 _0197_
*251 _0198_
*252 _0199_
*253 _0200_
*254 _0201_
*255 _0202_
*256 _0203_
*257 _0204_
*258 _0205_
*259 _0206_
*260 _0207_
*261 _0208_
*262 _0209_
*263 _0210_
*264 _0211_
*265 _0212_
*266 _0213_
*267 _0214_
*268 _0215_
*269 _0216_
*270 _0217_
*271 _0218_
*272 _0219_
*273 _0220_
*274 _0221_
*275 _0222_
*276 _0223_
*277 _0224_
*278 _0225_
*279 _0226_
*280 _0227_
*281 _0228_
*282 _0229_
*283 _0230_
*284 _0231_
*285 _0232_
*286 _0233_
*287 _0234_
*288 _0235_
*289 _0236_
*290 _0237_
*291 _0238_
*292 _0239_
*293 _0240_
*294 _0241_
*295 _0242_
*296 _0243_
*297 _0244_
*298 _0245_
*299 _0246_
*300 _0247_
*301 _0248_
*302 _0249_
*303 _0250_
*304 _0251_
*305 _0252_
*306 _0253_
*307 _0254_
*308 _0255_
*309 _0256_
*310 _0257_
*311 _0258_
*312 _0259_
*313 _0260_
*314 _0261_
*315 _0262_
*316 _0263_
*317 _0264_
*318 _0265_
*319 _0266_
*320 _0267_
*321 _0268_
*322 _0269_
*323 _0270_
*324 _0271_
*325 _0272_
*326 _0273_
*327 _0274_
*328 _0275_
*329 _0276_
*330 _0277_
*331 _0278_
*332 _0279_
*333 _0280_
*334 _0281_
*335 _0282_
*336 _0283_
*337 _0284_
*338 _0285_
*339 _0286_
*340 _0287_
*341 _0288_
*342 _0289_
*343 _0290_
*344 _0291_
*345 _0292_
*346 _0293_
*347 _0294_
*348 _0295_
*349 _0296_
*350 _0297_
*351 _0298_
*352 _0299_
*353 _0300_
*354 _0301_
*355 _0302_
*356 _0303_
*357 _0304_
*358 _0305_
*359 _0306_
*360 _0307_
*361 _0308_
*362 _0309_
*363 _0310_
*364 _0311_
*365 _0312_
*366 _0313_
*367 _0314_
*368 _0315_
*369 _0316_
*370 _0317_
*371 _0318_
*372 _0319_
*373 _0320_
*374 _0321_
*375 _0322_
*376 _0323_
*377 _0324_
*378 _0325_
*379 _0326_
*380 _0327_
*381 _0328_
*382 _0329_
*383 _0330_
*384 _0331_
*385 _0332_
*386 _0333_
*387 _0334_
*388 _0335_
*389 _0336_
*390 _0337_
*391 _0338_
*392 _0339_
*393 _0340_
*394 _0341_
*395 _0342_
*396 _0343_
*397 _0344_
*398 _0345_
*399 _0346_
*400 _0347_
*401 _0348_
*402 _0349_
*403 _0350_
*404 _0351_
*405 _0352_
*406 _0353_
*407 _0354_
*408 _0355_
*409 _0356_
*410 _0357_
*411 _0358_
*412 _0359_
*413 _0360_
*414 _0361_
*415 _0362_
*416 _0363_
*417 _0364_
*418 _0365_
*419 _0366_
*420 _0367_
*421 _0368_
*422 _0369_
*423 _0370_
*424 _0371_
*425 _0372_
*426 _0373_
*427 _0374_
*428 _0375_
*429 _0376_
*430 _0377_
*431 _0378_
*432 _0379_
*433 _0380_
*434 _0381_
*435 _0382_
*436 _0383_
*437 _0384_
*438 _0385_
*439 _0386_
*440 _0387_
*441 _0388_
*442 _0389_
*443 _0390_
*444 _0391_
*445 _0392_
*446 _0393_
*447 _0394_
*448 _0395_
*449 _0396_
*450 _0397_
*451 _0398_
*452 _0399_
*453 _0400_
*454 _0401_
*455 _0402_
*456 _0403_
*457 _0404_
*458 _0405_
*459 _0406_
*460 _0407_
*461 _0408_
*462 _0409_
*463 _0410_
*464 _0411_
*465 _0412_
*466 _0413_
*467 _0414_
*468 _0415_
*469 _0416_
*470 _0417_
*471 _0418_
*472 _0419_
*473 _0420_
*474 _0421_
*475 _0422_
*476 _0423_
*477 _0424_
*478 _0425_
*479 _0426_
*480 _0427_
*481 _0428_
*482 _0429_
*483 _0430_
*484 _0431_
*485 _0432_
*486 _0433_
*487 _0434_
*488 _0435_
*489 _0436_
*490 _0437_
*491 _0438_
*492 _0439_
*493 _0440_
*494 _0441_
*495 _0442_
*496 _0443_
*497 _0444_
*498 _0445_
*499 _0446_
*500 _0447_
*501 _0448_
*502 _0449_
*503 _0450_
*504 _0451_
*505 _0452_
*506 _0453_
*507 _0454_
*508 _0455_
*509 _0456_
*510 _0457_
*511 _0458_
*512 _0459_
*513 _0460_
*514 _0461_
*515 _0462_
*516 _0463_
*517 _0464_
*518 _0465_
*519 _0466_
*520 _0467_
*521 _0468_
*522 _0469_
*523 _0470_
*524 _0471_
*525 _0472_
*526 _0473_
*527 _0474_
*528 _0475_
*529 _0476_
*530 _0477_
*531 _0478_
*532 _0479_
*533 _0480_
*534 _0481_
*535 _0482_
*536 _0483_
*537 _0484_
*538 _0485_
*539 _0486_
*540 _0487_
*541 _0488_
*542 _0489_
*543 _0490_
*544 _0491_
*545 _0492_
*546 _0493_
*547 _0494_
*548 _0495_
*549 _0496_
*550 _0497_
*551 _0498_
*552 _0499_
*553 _0500_
*554 _0501_
*555 _0502_
*556 _0503_
*557 _0504_
*558 _0505_
*559 _0506_
*560 _0507_
*561 _0508_
*562 _0509_
*563 _0510_
*564 _0511_
*565 _0512_
*566 _0513_
*567 _0514_
*568 _0515_
*569 _0516_
*570 _0517_
*571 _0518_
*572 _0519_
*573 _0520_
*574 _0521_
*575 _0522_
*576 _0523_
*577 _0524_
*578 _0525_
*579 _0526_
*580 _0527_
*581 _0528_
*582 _0529_
*583 _0530_
*584 _0531_
*585 _0532_
*586 _0533_
*587 _0534_
*588 _0535_
*589 _0536_
*590 _0537_
*591 _0538_
*592 _0539_
*593 _0540_
*594 _0541_
*595 _0542_
*596 _0543_
*597 _0544_
*598 _0545_
*599 _0546_
*600 _0547_
*601 _0548_
*602 _0549_
*603 _0550_
*604 _0551_
*605 _0552_
*606 _0553_
*607 _0554_
*608 _0555_
*609 _0556_
*610 _0557_
*611 _0558_
*612 _0559_
*613 _0560_
*614 _0561_
*615 _0562_
*616 _0563_
*617 _0564_
*618 _0565_
*619 _0566_
*620 _0567_
*621 _0568_
*622 _0569_
*623 _0570_
*624 _0571_
*625 _0572_
*626 _0573_
*627 _0574_
*628 _0575_
*629 _0576_
*630 _0577_
*631 _0578_
*632 _0579_
*633 _0580_
*634 _0581_
*635 _0582_
*636 _0583_
*637 _0584_
*638 _0585_
*639 _0586_
*640 _0587_
*641 _0588_
*642 _0589_
*643 _0590_
*644 _0591_
*645 _0592_
*646 _0593_
*647 _0594_
*648 _0595_
*649 _0596_
*650 _0597_
*651 _0598_
*652 _0599_
*653 _0600_
*654 _0601_
*655 _0602_
*656 _0603_
*657 _0604_
*658 _0605_
*659 _0606_
*660 _0607_
*661 _0608_
*662 _0609_
*663 _0610_
*664 _0611_
*665 _0612_
*666 _0613_
*667 _0614_
*668 _0615_
*669 _0616_
*670 _0617_
*671 _0618_
*672 _0619_
*673 _0620_
*674 _0621_
*675 _0622_
*676 _0623_
*677 _0624_
*678 _0625_
*679 _0626_
*680 _0627_
*681 _0628_
*682 _0629_
*683 _0630_
*684 _0631_
*685 _0632_
*686 _0633_
*687 _0634_
*688 _0635_
*689 _0636_
*690 _0637_
*691 _0638_
*692 _0639_
*693 _0640_
*694 _0641_
*695 _0642_
*696 _0643_
*697 _0644_
*698 _0645_
*699 _0646_
*700 _0647_
*701 _0648_
*702 _0649_
*703 _0650_
*704 _0651_
*705 _0652_
*706 _0653_
*707 _0654_
*708 _0655_
*709 _0656_
*710 _0657_
*711 _0658_
*712 _0659_
*713 _0660_
*714 _0661_
*715 _0662_
*716 _0663_
*717 _0664_
*718 _0665_
*719 _0666_
*720 _0667_
*721 _0668_
*722 _0669_
*723 _0670_
*724 _0671_
*725 _0672_
*726 _0673_
*727 _0674_
*728 _0675_
*729 _0676_
*730 _0677_
*731 _0678_
*732 _0679_
*733 _0680_
*734 _0681_
*735 _0682_
*736 _0683_
*737 _0684_
*738 _0685_
*739 _0686_
*740 _0687_
*741 _0688_
*742 _0689_
*743 _0690_
*744 _0691_
*745 _0692_
*746 _0693_
*747 _0694_
*748 _0695_
*749 _0696_
*750 _0697_
*751 _0698_
*752 _0699_
*753 _0700_
*754 _0701_
*755 _0702_
*756 _0703_
*757 _0704_
*758 _0705_
*759 _0706_
*760 _0707_
*761 _0708_
*762 _0709_
*763 _0710_
*764 _0711_
*765 _0712_
*766 _0713_
*767 _0714_
*768 _0715_
*769 _0716_
*770 _0717_
*771 _0718_
*772 _0719_
*773 _0720_
*774 _0721_
*775 _0722_
*776 _0723_
*777 _0724_
*778 _0725_
*779 _0726_
*780 _0727_
*781 _0728_
*782 _0729_
*783 _0730_
*784 _0731_
*785 _0732_
*786 _0733_
*787 _0734_
*788 _0735_
*789 _0736_
*790 _0737_
*791 _0738_
*792 _0739_
*793 _0740_
*794 _0741_
*795 _0742_
*796 _0743_
*797 _0744_
*798 _0745_
*799 _0746_
*800 _0747_
*801 _0748_
*802 _0749_
*803 _0750_
*804 _0751_
*805 _0752_
*806 _0753_
*807 _0754_
*808 _0755_
*809 _0756_
*810 _0757_
*811 _0758_
*812 _0759_
*813 _0760_
*814 _0761_
*815 _0762_
*816 _0763_
*817 _0764_
*818 _0765_
*819 _0766_
*820 _0767_
*821 _0768_
*822 _0769_
*823 _0770_
*824 _0771_
*825 _0772_
*826 _0773_
*827 _0774_
*828 _0775_
*829 _0776_
*830 _0777_
*831 _0778_
*832 _0779_
*833 _0780_
*834 _0781_
*835 _0782_
*836 _0783_
*837 _0784_
*838 _0785_
*839 _0786_
*840 _0787_
*841 _0788_
*842 _0789_
*843 _0790_
*844 _0791_
*845 _0792_
*846 _0793_
*847 _0794_
*848 _0795_
*849 _0796_
*850 _0797_
*851 _0798_
*852 _0799_
*853 _0800_
*854 _0801_
*855 _0802_
*856 _0803_
*857 _0804_
*858 _0805_
*859 _0806_
*860 _0807_
*861 _0808_
*862 _0809_
*863 _0810_
*864 _0811_
*865 _0812_
*866 _0813_
*867 _0814_
*868 _0815_
*869 _0816_
*870 _0817_
*871 _0818_
*872 _0819_
*873 _0820_
*874 _0821_
*875 _0822_
*876 _0823_
*877 _0824_
*878 _0825_
*879 _0826_
*880 _0827_
*881 _0828_
*882 _0829_
*883 _0830_
*884 _0831_
*885 _0832_
*886 _0833_
*887 _0834_
*888 _0835_
*889 _0836_
*890 _0837_
*891 _0838_
*892 _0839_
*893 _0840_
*894 _0841_
*895 _0842_
*896 _0843_
*897 _0844_
*898 _0845_
*899 _0846_
*900 _0847_
*901 _0848_
*902 _0849_
*903 _0850_
*904 _0851_
*905 _0852_
*906 _0853_
*907 _0854_
*908 _0855_
*909 _0856_
*910 _0857_
*911 _0858_
*912 _0859_
*913 _0860_
*914 _0861_
*915 _0862_
*916 _0863_
*917 _0864_
*918 _0865_
*919 _0866_
*920 _0867_
*921 _0868_
*922 _0869_
*923 _0870_
*924 _0871_
*925 _0872_
*926 _0873_
*927 _0874_
*928 _0875_
*929 _0876_
*930 _0877_
*931 _0878_
*932 _0879_
*933 _0880_
*934 _0881_
*935 _0882_
*936 _0883_
*937 _0884_
*938 _0885_
*939 _0886_
*940 _0887_
*941 _0888_
*942 net1
*943 net10
*944 net100
*945 net101
*946 net102
*947 net103
*948 net104
*949 net105
*950 net106
*951 net107
*952 net108
*953 net109
*954 net11
*955 net12
*956 net13
*957 net14
*958 net15
*959 net16
*960 net17
*961 net18
*962 net19
*963 net2
*964 net20
*965 net21
*966 net22
*967 net23
*968 net24
*969 net25
*970 net26
*971 net27
*972 net28
*973 net29
*974 net3
*975 net30
*976 net31
*977 net32
*978 net33
*979 net34
*980 net35
*981 net36
*982 net37
*983 net38
*984 net39
*985 net4
*986 net40
*987 net41
*988 net42
*989 net43
*990 net44
*991 net45
*992 net46
*993 net47
*994 net48
*995 net49
*996 net5
*997 net50
*998 net51
*999 net52
*1000 net53
*1001 net54
*1002 net55
*1003 net56
*1004 net57
*1005 net58
*1006 net59
*1007 net6
*1008 net60
*1009 net61
*1010 net62
*1011 net63
*1012 net64
*1013 net65
*1014 net66
*1015 net67
*1016 net68
*1017 net69
*1018 net7
*1019 net70
*1020 net71
*1021 net72
*1022 net73
*1023 net74
*1024 net75
*1025 net76
*1026 net77
*1027 net78
*1028 net79
*1029 net8
*1030 net80
*1031 net81
*1032 net82
*1033 net83
*1034 net84
*1035 net85
*1036 net86
*1037 net87
*1038 net88
*1039 net89
*1040 net9
*1041 net90
*1042 net91
*1043 net92
*1044 net93
*1045 net94
*1046 net95
*1047 net96
*1048 net97
*1049 net98
*1050 net99
*1051 po_0\._1_\[0\]
*1052 po_0\._1_\[1\]
*1053 po_0\._1_\[2\]
*1054 po_0\._1_\[3\]
*1055 po_0\._1_\[4\]
*1056 po_0\._1_\[5\]
*1057 po_0\._1_\[6\]
*1058 po_0\._1_\[7\]
*1059 po_0\.alu_0\._10_\[0\]
*1060 po_0\.alu_0\._10_\[1\]
*1061 po_0\.alu_0\._10_\[2\]
*1062 po_0\.alu_0\._10_\[3\]
*1063 po_0\.alu_0\._10_\[4\]
*1064 po_0\.alu_0\._10_\[5\]
*1065 po_0\.alu_0\._10_\[6\]
*1066 po_0\.alu_0\._10_\[7\]
*1067 po_0\.alu_0\._11_\[0\]
*1068 po_0\.alu_0\._11_\[1\]
*1069 po_0\.alu_0\._11_\[2\]
*1070 po_0\.alu_0\._11_\[3\]
*1071 po_0\.alu_0\._11_\[4\]
*1072 po_0\.alu_0\._11_\[5\]
*1073 po_0\.alu_0\._11_\[6\]
*1074 po_0\.alu_0\._11_\[7\]
*1075 po_0\.alu_0\.s0
*1076 po_0\.alu_0\.s1
*1077 po_0\.muxf_0\.rf_w_data\[0\]
*1078 po_0\.muxf_0\.rf_w_data\[1\]
*1079 po_0\.muxf_0\.rf_w_data\[2\]
*1080 po_0\.muxf_0\.rf_w_data\[3\]
*1081 po_0\.muxf_0\.rf_w_data\[4\]
*1082 po_0\.muxf_0\.rf_w_data\[5\]
*1083 po_0\.muxf_0\.rf_w_data\[6\]
*1084 po_0\.muxf_0\.rf_w_data\[7\]
*1085 po_0\.muxf_0\.s0
*1086 po_0\.muxf_0\.s1
*1087 po_0\.regf_0\._3_\[0\]
*1088 po_0\.regf_0\._3_\[1\]
*1089 po_0\.regf_0\._3_\[2\]
*1090 po_0\.regf_0\._3_\[3\]
*1091 po_0\.regf_0\._3_\[4\]
*1092 po_0\.regf_0\._3_\[5\]
*1093 po_0\.regf_0\._3_\[6\]
*1094 po_0\.regf_0\._3_\[7\]
*1095 po_0\.regf_0\._5_\[0\]
*1096 po_0\.regf_0\._5_\[1\]
*1097 po_0\.regf_0\._5_\[2\]
*1098 po_0\.regf_0\._5_\[3\]
*1099 po_0\.regf_0\._5_\[4\]
*1100 po_0\.regf_0\._5_\[5\]
*1101 po_0\.regf_0\._5_\[6\]
*1102 po_0\.regf_0\._5_\[7\]
*1103 po_0\.regf_0\.rf\[0\]\[0\]
*1104 po_0\.regf_0\.rf\[0\]\[1\]
*1105 po_0\.regf_0\.rf\[0\]\[2\]
*1106 po_0\.regf_0\.rf\[0\]\[3\]
*1107 po_0\.regf_0\.rf\[0\]\[4\]
*1108 po_0\.regf_0\.rf\[0\]\[5\]
*1109 po_0\.regf_0\.rf\[0\]\[6\]
*1110 po_0\.regf_0\.rf\[0\]\[7\]
*1111 po_0\.regf_0\.rf\[10\]\[0\]
*1112 po_0\.regf_0\.rf\[10\]\[1\]
*1113 po_0\.regf_0\.rf\[10\]\[2\]
*1114 po_0\.regf_0\.rf\[10\]\[3\]
*1115 po_0\.regf_0\.rf\[10\]\[4\]
*1116 po_0\.regf_0\.rf\[10\]\[5\]
*1117 po_0\.regf_0\.rf\[10\]\[6\]
*1118 po_0\.regf_0\.rf\[10\]\[7\]
*1119 po_0\.regf_0\.rf\[11\]\[0\]
*1120 po_0\.regf_0\.rf\[11\]\[1\]
*1121 po_0\.regf_0\.rf\[11\]\[2\]
*1122 po_0\.regf_0\.rf\[11\]\[3\]
*1123 po_0\.regf_0\.rf\[11\]\[4\]
*1124 po_0\.regf_0\.rf\[11\]\[5\]
*1125 po_0\.regf_0\.rf\[11\]\[6\]
*1126 po_0\.regf_0\.rf\[11\]\[7\]
*1127 po_0\.regf_0\.rf\[12\]\[0\]
*1128 po_0\.regf_0\.rf\[12\]\[1\]
*1129 po_0\.regf_0\.rf\[12\]\[2\]
*1130 po_0\.regf_0\.rf\[12\]\[3\]
*1131 po_0\.regf_0\.rf\[12\]\[4\]
*1132 po_0\.regf_0\.rf\[12\]\[5\]
*1133 po_0\.regf_0\.rf\[12\]\[6\]
*1134 po_0\.regf_0\.rf\[12\]\[7\]
*1135 po_0\.regf_0\.rf\[13\]\[0\]
*1136 po_0\.regf_0\.rf\[13\]\[1\]
*1137 po_0\.regf_0\.rf\[13\]\[2\]
*1138 po_0\.regf_0\.rf\[13\]\[3\]
*1139 po_0\.regf_0\.rf\[13\]\[4\]
*1140 po_0\.regf_0\.rf\[13\]\[5\]
*1141 po_0\.regf_0\.rf\[13\]\[6\]
*1142 po_0\.regf_0\.rf\[13\]\[7\]
*1143 po_0\.regf_0\.rf\[14\]\[0\]
*1144 po_0\.regf_0\.rf\[14\]\[1\]
*1145 po_0\.regf_0\.rf\[14\]\[2\]
*1146 po_0\.regf_0\.rf\[14\]\[3\]
*1147 po_0\.regf_0\.rf\[14\]\[4\]
*1148 po_0\.regf_0\.rf\[14\]\[5\]
*1149 po_0\.regf_0\.rf\[14\]\[6\]
*1150 po_0\.regf_0\.rf\[14\]\[7\]
*1151 po_0\.regf_0\.rf\[15\]\[0\]
*1152 po_0\.regf_0\.rf\[15\]\[1\]
*1153 po_0\.regf_0\.rf\[15\]\[2\]
*1154 po_0\.regf_0\.rf\[15\]\[3\]
*1155 po_0\.regf_0\.rf\[15\]\[4\]
*1156 po_0\.regf_0\.rf\[15\]\[5\]
*1157 po_0\.regf_0\.rf\[15\]\[6\]
*1158 po_0\.regf_0\.rf\[15\]\[7\]
*1159 po_0\.regf_0\.rf\[1\]\[0\]
*1160 po_0\.regf_0\.rf\[1\]\[1\]
*1161 po_0\.regf_0\.rf\[1\]\[2\]
*1162 po_0\.regf_0\.rf\[1\]\[3\]
*1163 po_0\.regf_0\.rf\[1\]\[4\]
*1164 po_0\.regf_0\.rf\[1\]\[5\]
*1165 po_0\.regf_0\.rf\[1\]\[6\]
*1166 po_0\.regf_0\.rf\[1\]\[7\]
*1167 po_0\.regf_0\.rf\[2\]\[0\]
*1168 po_0\.regf_0\.rf\[2\]\[1\]
*1169 po_0\.regf_0\.rf\[2\]\[2\]
*1170 po_0\.regf_0\.rf\[2\]\[3\]
*1171 po_0\.regf_0\.rf\[2\]\[4\]
*1172 po_0\.regf_0\.rf\[2\]\[5\]
*1173 po_0\.regf_0\.rf\[2\]\[6\]
*1174 po_0\.regf_0\.rf\[2\]\[7\]
*1175 po_0\.regf_0\.rf\[3\]\[0\]
*1176 po_0\.regf_0\.rf\[3\]\[1\]
*1177 po_0\.regf_0\.rf\[3\]\[2\]
*1178 po_0\.regf_0\.rf\[3\]\[3\]
*1179 po_0\.regf_0\.rf\[3\]\[4\]
*1180 po_0\.regf_0\.rf\[3\]\[5\]
*1181 po_0\.regf_0\.rf\[3\]\[6\]
*1182 po_0\.regf_0\.rf\[3\]\[7\]
*1183 po_0\.regf_0\.rf\[4\]\[0\]
*1184 po_0\.regf_0\.rf\[4\]\[1\]
*1185 po_0\.regf_0\.rf\[4\]\[2\]
*1186 po_0\.regf_0\.rf\[4\]\[3\]
*1187 po_0\.regf_0\.rf\[4\]\[4\]
*1188 po_0\.regf_0\.rf\[4\]\[5\]
*1189 po_0\.regf_0\.rf\[4\]\[6\]
*1190 po_0\.regf_0\.rf\[4\]\[7\]
*1191 po_0\.regf_0\.rf\[5\]\[0\]
*1192 po_0\.regf_0\.rf\[5\]\[1\]
*1193 po_0\.regf_0\.rf\[5\]\[2\]
*1194 po_0\.regf_0\.rf\[5\]\[3\]
*1195 po_0\.regf_0\.rf\[5\]\[4\]
*1196 po_0\.regf_0\.rf\[5\]\[5\]
*1197 po_0\.regf_0\.rf\[5\]\[6\]
*1198 po_0\.regf_0\.rf\[5\]\[7\]
*1199 po_0\.regf_0\.rf\[6\]\[0\]
*1200 po_0\.regf_0\.rf\[6\]\[1\]
*1201 po_0\.regf_0\.rf\[6\]\[2\]
*1202 po_0\.regf_0\.rf\[6\]\[3\]
*1203 po_0\.regf_0\.rf\[6\]\[4\]
*1204 po_0\.regf_0\.rf\[6\]\[5\]
*1205 po_0\.regf_0\.rf\[6\]\[6\]
*1206 po_0\.regf_0\.rf\[6\]\[7\]
*1207 po_0\.regf_0\.rf\[7\]\[0\]
*1208 po_0\.regf_0\.rf\[7\]\[1\]
*1209 po_0\.regf_0\.rf\[7\]\[2\]
*1210 po_0\.regf_0\.rf\[7\]\[3\]
*1211 po_0\.regf_0\.rf\[7\]\[4\]
*1212 po_0\.regf_0\.rf\[7\]\[5\]
*1213 po_0\.regf_0\.rf\[7\]\[6\]
*1214 po_0\.regf_0\.rf\[7\]\[7\]
*1215 po_0\.regf_0\.rf\[8\]\[0\]
*1216 po_0\.regf_0\.rf\[8\]\[1\]
*1217 po_0\.regf_0\.rf\[8\]\[2\]
*1218 po_0\.regf_0\.rf\[8\]\[3\]
*1219 po_0\.regf_0\.rf\[8\]\[4\]
*1220 po_0\.regf_0\.rf\[8\]\[5\]
*1221 po_0\.regf_0\.rf\[8\]\[6\]
*1222 po_0\.regf_0\.rf\[8\]\[7\]
*1223 po_0\.regf_0\.rf\[9\]\[0\]
*1224 po_0\.regf_0\.rf\[9\]\[1\]
*1225 po_0\.regf_0\.rf\[9\]\[2\]
*1226 po_0\.regf_0\.rf\[9\]\[3\]
*1227 po_0\.regf_0\.rf\[9\]\[4\]
*1228 po_0\.regf_0\.rf\[9\]\[5\]
*1229 po_0\.regf_0\.rf\[9\]\[6\]
*1230 po_0\.regf_0\.rf\[9\]\[7\]
*1231 po_0\.regf_0\.rp_addr\[0\]
*1232 po_0\.regf_0\.rp_addr\[1\]
*1233 po_0\.regf_0\.rp_addr\[2\]
*1234 po_0\.regf_0\.rp_addr\[3\]
*1235 po_0\.regf_0\.rp_rd
*1236 po_0\.regf_0\.rq_addr\[0\]
*1237 po_0\.regf_0\.rq_addr\[1\]
*1238 po_0\.regf_0\.rq_addr\[2\]
*1239 po_0\.regf_0\.rq_addr\[3\]
*1240 po_0\.regf_0\.rq_rd
*1241 po_0\.regf_0\.w_addr\[0\]
*1242 po_0\.regf_0\.w_addr\[1\]
*1243 po_0\.regf_0\.w_addr\[2\]
*1244 po_0\.regf_0\.w_addr\[3\]
*1245 po_0\.regf_0\.w_wr
*1246 uc_0\._00_
*1247 uc_0\._01_
*1248 uc_0\._02_
*1249 uc_0\._21_\[0\]
*1250 uc_0\._21_\[1\]
*1251 uc_0\._21_\[2\]
*1252 uc_0\._21_\[3\]
*1253 uc_0\._21_\[4\]
*1254 uc_0\._21_\[5\]
*1255 uc_0\._21_\[6\]
*1256 uc_0\._21_\[7\]
*1257 uc_0\.bc_0\.358\$func\$\/openlane\/designs\/vahid6i\/src\/vahid6i\.v\:960\$35\.\$result\[0\]
*1258 uc_0\.bc_0\.358\$func\$\/openlane\/designs\/vahid6i\/src\/vahid6i\.v\:960\$35\.\$result\[1\]
*1259 uc_0\.bc_0\.358\$func\$\/openlane\/designs\/vahid6i\/src\/vahid6i\.v\:960\$35\.\$result\[2\]
*1260 uc_0\.bc_0\.358\$func\$\/openlane\/designs\/vahid6i\/src\/vahid6i\.v\:960\$35\.\$result\[3\]
*1261 uc_0\.bc_0\.358\$func\$\/openlane\/designs\/vahid6i\/src\/vahid6i\.v\:960\$35\.\$result\[4\]
*1262 uc_0\.bc_0\.358\$func\$\/openlane\/designs\/vahid6i\/src\/vahid6i\.v\:960\$35\.\$result\[5\]
*1263 uc_0\.bc_0\.358\$func\$\/openlane\/designs\/vahid6i\/src\/vahid6i\.v\:960\$35\.\$result\[6\]
*1264 uc_0\.bc_0\.358\$func\$\/openlane\/designs\/vahid6i\/src\/vahid6i\.v\:960\$35\.\$result\[7\]
*1265 uc_0\.bc_0\.359\$func\$\/openlane\/designs\/vahid6i\/src\/vahid6i\.v\:987\$36\.\$result\[0\]
*1266 uc_0\.bc_0\.359\$func\$\/openlane\/designs\/vahid6i\/src\/vahid6i\.v\:987\$36\.\$result\[1\]
*1267 uc_0\.bc_0\.359\$func\$\/openlane\/designs\/vahid6i\/src\/vahid6i\.v\:987\$36\.\$result\[2\]
*1268 uc_0\.bc_0\.359\$func\$\/openlane\/designs\/vahid6i\/src\/vahid6i\.v\:987\$36\.\$result\[3\]
*1269 uc_0\.bc_0\.359\$func\$\/openlane\/designs\/vahid6i\/src\/vahid6i\.v\:987\$36\.\$result\[4\]
*1270 uc_0\.bc_0\.359\$func\$\/openlane\/designs\/vahid6i\/src\/vahid6i\.v\:987\$36\.\$result\[5\]
*1271 uc_0\.bc_0\.359\$func\$\/openlane\/designs\/vahid6i\/src\/vahid6i\.v\:987\$36\.\$result\[6\]
*1272 uc_0\.bc_0\.359\$func\$\/openlane\/designs\/vahid6i\/src\/vahid6i\.v\:987\$36\.\$result\[7\]
*1273 uc_0\.bc_0\._12_\[0\]
*1274 uc_0\.bc_0\._12_\[1\]
*1275 uc_0\.bc_0\._12_\[2\]
*1276 uc_0\.bc_0\._12_\[3\]
*1277 uc_0\.bc_0\._14_\[0\]
*1278 uc_0\.bc_0\._14_\[1\]
*1279 uc_0\.bc_0\._14_\[2\]
*1280 uc_0\.bc_0\._14_\[3\]
*1281 uc_0\.bc_0\._14_\[4\]
*1282 uc_0\.bc_0\._14_\[5\]
*1283 uc_0\.bc_0\._14_\[6\]
*1284 uc_0\.bc_0\._14_\[7\]
*1285 uc_0\.bc_0\._85_\[0\]
*1286 uc_0\.bc_0\._85_\[1\]
*1287 uc_0\.bc_0\._85_\[2\]
*1288 uc_0\.bc_0\._85_\[3\]
*1289 ANTENNA_1
*1290 ANTENNA_2
*1291 ANTENNA_3
*1292 ANTENNA_4
*1293 ANTENNA_5
*1294 FILLER_0_102
*1295 FILLER_0_110
*1296 FILLER_0_113
*1297 FILLER_0_119
*1298 FILLER_0_13
*1299 FILLER_0_131
*1300 FILLER_0_139
*1301 FILLER_0_141
*1302 FILLER_0_149
*1303 FILLER_0_154
*1304 FILLER_0_166
*1305 FILLER_0_169
*1306 FILLER_0_181
*1307 FILLER_0_188
*1308 FILLER_0_197
*1309 FILLER_0_209
*1310 FILLER_0_21
*1311 FILLER_0_217
*1312 FILLER_0_223
*1313 FILLER_0_225
*1314 FILLER_0_237
*1315 FILLER_0_245
*1316 FILLER_0_25
*1317 FILLER_0_253
*1318 FILLER_0_265
*1319 FILLER_0_274
*1320 FILLER_0_281
*1321 FILLER_0_286
*1322 FILLER_0_29
*1323 FILLER_0_298
*1324 FILLER_0_306
*1325 FILLER_0_309
*1326 FILLER_0_325
*1327 FILLER_0_333
*1328 FILLER_0_337
*1329 FILLER_0_345
*1330 FILLER_0_349
*1331 FILLER_0_361
*1332 FILLER_0_365
*1333 FILLER_0_373
*1334 FILLER_0_41
*1335 FILLER_0_49
*1336 FILLER_0_55
*1337 FILLER_0_57
*1338 FILLER_0_69
*1339 FILLER_0_81
*1340 FILLER_0_85
*1341 FILLER_0_9
*1342 FILLER_0_90
*1343 FILLER_10_103
*1344 FILLER_10_112
*1345 FILLER_10_116
*1346 FILLER_10_130
*1347 FILLER_10_15
*1348 FILLER_10_151
*1349 FILLER_10_155
*1350 FILLER_10_167
*1351 FILLER_10_183
*1352 FILLER_10_226
*1353 FILLER_10_232
*1354 FILLER_10_249
*1355 FILLER_10_253
*1356 FILLER_10_27
*1357 FILLER_10_270
*1358 FILLER_10_278
*1359 FILLER_10_29
*1360 FILLER_10_292
*1361 FILLER_10_299
*1362 FILLER_10_3
*1363 FILLER_10_303
*1364 FILLER_10_309
*1365 FILLER_10_345
*1366 FILLER_10_35
*1367 FILLER_10_358
*1368 FILLER_10_49
*1369 FILLER_10_82
*1370 FILLER_10_85
*1371 FILLER_10_93
*1372 FILLER_11_102
*1373 FILLER_11_110
*1374 FILLER_11_113
*1375 FILLER_11_121
*1376 FILLER_11_130
*1377 FILLER_11_15
*1378 FILLER_11_162
*1379 FILLER_11_169
*1380 FILLER_11_176
*1381 FILLER_11_188
*1382 FILLER_11_200
*1383 FILLER_11_212
*1384 FILLER_11_216
*1385 FILLER_11_220
*1386 FILLER_11_239
*1387 FILLER_11_245
*1388 FILLER_11_260
*1389 FILLER_11_27
*1390 FILLER_11_272
*1391 FILLER_11_281
*1392 FILLER_11_3
*1393 FILLER_11_310
*1394 FILLER_11_322
*1395 FILLER_11_334
*1396 FILLER_11_346
*1397 FILLER_11_354
*1398 FILLER_11_365
*1399 FILLER_11_377
*1400 FILLER_11_39
*1401 FILLER_11_51
*1402 FILLER_11_55
*1403 FILLER_11_57
*1404 FILLER_11_68
*1405 FILLER_11_80
*1406 FILLER_11_92
*1407 FILLER_12_104
*1408 FILLER_12_115
*1409 FILLER_12_127
*1410 FILLER_12_134
*1411 FILLER_12_141
*1412 FILLER_12_15
*1413 FILLER_12_150
*1414 FILLER_12_174
*1415 FILLER_12_192
*1416 FILLER_12_197
*1417 FILLER_12_209
*1418 FILLER_12_217
*1419 FILLER_12_250
*1420 FILLER_12_253
*1421 FILLER_12_265
*1422 FILLER_12_27
*1423 FILLER_12_277
*1424 FILLER_12_285
*1425 FILLER_12_29
*1426 FILLER_12_299
*1427 FILLER_12_3
*1428 FILLER_12_307
*1429 FILLER_12_309
*1430 FILLER_12_321
*1431 FILLER_12_333
*1432 FILLER_12_345
*1433 FILLER_12_35
*1434 FILLER_12_357
*1435 FILLER_12_363
*1436 FILLER_12_365
*1437 FILLER_12_377
*1438 FILLER_12_42
*1439 FILLER_12_54
*1440 FILLER_12_66
*1441 FILLER_12_78
*1442 FILLER_12_85
*1443 FILLER_12_97
*1444 FILLER_13_109
*1445 FILLER_13_119
*1446 FILLER_13_131
*1447 FILLER_13_143
*1448 FILLER_13_15
*1449 FILLER_13_151
*1450 FILLER_13_155
*1451 FILLER_13_167
*1452 FILLER_13_173
*1453 FILLER_13_181
*1454 FILLER_13_199
*1455 FILLER_13_211
*1456 FILLER_13_223
*1457 FILLER_13_225
*1458 FILLER_13_241
*1459 FILLER_13_27
*1460 FILLER_13_273
*1461 FILLER_13_279
*1462 FILLER_13_281
*1463 FILLER_13_293
*1464 FILLER_13_3
*1465 FILLER_13_305
*1466 FILLER_13_311
*1467 FILLER_13_325
*1468 FILLER_13_333
*1469 FILLER_13_345
*1470 FILLER_13_364
*1471 FILLER_13_376
*1472 FILLER_13_384
*1473 FILLER_13_39
*1474 FILLER_13_47
*1475 FILLER_13_55
*1476 FILLER_13_62
*1477 FILLER_13_74
*1478 FILLER_13_82
*1479 FILLER_13_98
*1480 FILLER_14_107
*1481 FILLER_14_127
*1482 FILLER_14_133
*1483 FILLER_14_139
*1484 FILLER_14_144
*1485 FILLER_14_156
*1486 FILLER_14_168
*1487 FILLER_14_179
*1488 FILLER_14_188
*1489 FILLER_14_21
*1490 FILLER_14_221
*1491 FILLER_14_230
*1492 FILLER_14_250
*1493 FILLER_14_27
*1494 FILLER_14_273
*1495 FILLER_14_279
*1496 FILLER_14_292
*1497 FILLER_14_298
*1498 FILLER_14_303
*1499 FILLER_14_307
*1500 FILLER_14_309
*1501 FILLER_14_336
*1502 FILLER_14_363
*1503 FILLER_14_369
*1504 FILLER_14_381
*1505 FILLER_14_46
*1506 FILLER_14_79
*1507 FILLER_14_83
*1508 FILLER_14_9
*1509 FILLER_14_95
*1510 FILLER_15_111
*1511 FILLER_15_113
*1512 FILLER_15_125
*1513 FILLER_15_142
*1514 FILLER_15_15
*1515 FILLER_15_154
*1516 FILLER_15_162
*1517 FILLER_15_185
*1518 FILLER_15_197
*1519 FILLER_15_209
*1520 FILLER_15_217
*1521 FILLER_15_223
*1522 FILLER_15_229
*1523 FILLER_15_241
*1524 FILLER_15_27
*1525 FILLER_15_281
*1526 FILLER_15_287
*1527 FILLER_15_3
*1528 FILLER_15_311
*1529 FILLER_15_323
*1530 FILLER_15_337
*1531 FILLER_15_350
*1532 FILLER_15_366
*1533 FILLER_15_384
*1534 FILLER_15_39
*1535 FILLER_15_47
*1536 FILLER_15_55
*1537 FILLER_15_57
*1538 FILLER_15_65
*1539 FILLER_15_70
*1540 FILLER_15_82
*1541 FILLER_15_94
*1542 FILLER_16_106
*1543 FILLER_16_122
*1544 FILLER_16_134
*1545 FILLER_16_141
*1546 FILLER_16_15
*1547 FILLER_16_154
*1548 FILLER_16_166
*1549 FILLER_16_179
*1550 FILLER_16_187
*1551 FILLER_16_218
*1552 FILLER_16_226
*1553 FILLER_16_234
*1554 FILLER_16_238
*1555 FILLER_16_244
*1556 FILLER_16_253
*1557 FILLER_16_265
*1558 FILLER_16_27
*1559 FILLER_16_277
*1560 FILLER_16_289
*1561 FILLER_16_29
*1562 FILLER_16_3
*1563 FILLER_16_302
*1564 FILLER_16_309
*1565 FILLER_16_321
*1566 FILLER_16_329
*1567 FILLER_16_339
*1568 FILLER_16_351
*1569 FILLER_16_363
*1570 FILLER_16_365
*1571 FILLER_16_372
*1572 FILLER_16_380
*1573 FILLER_16_41
*1574 FILLER_16_53
*1575 FILLER_16_71
*1576 FILLER_16_83
*1577 FILLER_16_85
*1578 FILLER_16_89
*1579 FILLER_16_94
*1580 FILLER_17_106
*1581 FILLER_17_113
*1582 FILLER_17_127
*1583 FILLER_17_145
*1584 FILLER_17_15
*1585 FILLER_17_153
*1586 FILLER_17_158
*1587 FILLER_17_166
*1588 FILLER_17_169
*1589 FILLER_17_196
*1590 FILLER_17_208
*1591 FILLER_17_220
*1592 FILLER_17_240
*1593 FILLER_17_256
*1594 FILLER_17_268
*1595 FILLER_17_27
*1596 FILLER_17_281
*1597 FILLER_17_293
*1598 FILLER_17_3
*1599 FILLER_17_305
*1600 FILLER_17_341
*1601 FILLER_17_357
*1602 FILLER_17_365
*1603 FILLER_17_384
*1604 FILLER_17_42
*1605 FILLER_17_54
*1606 FILLER_17_57
*1607 FILLER_17_61
*1608 FILLER_17_82
*1609 FILLER_17_88
*1610 FILLER_17_95
*1611 FILLER_18_117
*1612 FILLER_18_126
*1613 FILLER_18_138
*1614 FILLER_18_141
*1615 FILLER_18_149
*1616 FILLER_18_15
*1617 FILLER_18_156
*1618 FILLER_18_164
*1619 FILLER_18_176
*1620 FILLER_18_195
*1621 FILLER_18_197
*1622 FILLER_18_209
*1623 FILLER_18_217
*1624 FILLER_18_239
*1625 FILLER_18_243
*1626 FILLER_18_269
*1627 FILLER_18_27
*1628 FILLER_18_281
*1629 FILLER_18_29
*1630 FILLER_18_291
*1631 FILLER_18_3
*1632 FILLER_18_303
*1633 FILLER_18_318
*1634 FILLER_18_326
*1635 FILLER_18_331
*1636 FILLER_18_338
*1637 FILLER_18_355
*1638 FILLER_18_363
*1639 FILLER_18_37
*1640 FILLER_18_371
*1641 FILLER_18_383
*1642 FILLER_18_40
*1643 FILLER_18_54
*1644 FILLER_18_62
*1645 FILLER_18_70
*1646 FILLER_18_77
*1647 FILLER_18_83
*1648 FILLER_18_85
*1649 FILLER_19_107
*1650 FILLER_19_111
*1651 FILLER_19_113
*1652 FILLER_19_125
*1653 FILLER_19_145
*1654 FILLER_19_149
*1655 FILLER_19_164
*1656 FILLER_19_172
*1657 FILLER_19_184
*1658 FILLER_19_192
*1659 FILLER_19_204
*1660 FILLER_19_21
*1661 FILLER_19_216
*1662 FILLER_19_225
*1663 FILLER_19_237
*1664 FILLER_19_249
*1665 FILLER_19_261
*1666 FILLER_19_293
*1667 FILLER_19_301
*1668 FILLER_19_318
*1669 FILLER_19_33
*1670 FILLER_19_330
*1671 FILLER_19_337
*1672 FILLER_19_343
*1673 FILLER_19_359
*1674 FILLER_19_363
*1675 FILLER_19_380
*1676 FILLER_19_384
*1677 FILLER_19_50
*1678 FILLER_19_67
*1679 FILLER_19_86
*1680 FILLER_19_9
*1681 FILLER_19_95
*1682 FILLER_1_105
*1683 FILLER_1_111
*1684 FILLER_1_113
*1685 FILLER_1_125
*1686 FILLER_1_137
*1687 FILLER_1_149
*1688 FILLER_1_161
*1689 FILLER_1_167
*1690 FILLER_1_178
*1691 FILLER_1_18
*1692 FILLER_1_195
*1693 FILLER_1_202
*1694 FILLER_1_219
*1695 FILLER_1_223
*1696 FILLER_1_237
*1697 FILLER_1_245
*1698 FILLER_1_265
*1699 FILLER_1_275
*1700 FILLER_1_279
*1701 FILLER_1_291
*1702 FILLER_1_297
*1703 FILLER_1_315
*1704 FILLER_1_323
*1705 FILLER_1_327
*1706 FILLER_1_333
*1707 FILLER_1_342
*1708 FILLER_1_35
*1709 FILLER_1_360
*1710 FILLER_1_372
*1711 FILLER_1_377
*1712 FILLER_1_47
*1713 FILLER_1_55
*1714 FILLER_1_57
*1715 FILLER_1_6
*1716 FILLER_1_69
*1717 FILLER_1_81
*1718 FILLER_1_93
*1719 FILLER_20_103
*1720 FILLER_20_111
*1721 FILLER_20_119
*1722 FILLER_20_131
*1723 FILLER_20_139
*1724 FILLER_20_141
*1725 FILLER_20_15
*1726 FILLER_20_153
*1727 FILLER_20_190
*1728 FILLER_20_206
*1729 FILLER_20_211
*1730 FILLER_20_222
*1731 FILLER_20_239
*1732 FILLER_20_251
*1733 FILLER_20_262